

        *** GPGPU-Sim Simulator Version 4.2.0  [build gpgpu-sim_git-commit-5e9d31b8132651796656877ecb58fde27177ba7a_modified_303.0] ***


GPGPU-Sim PTX: simulation mode 0 (can change with PTX_SIM_MODE_FUNC environment variable:
               1=functional simulation only, 0=detailed performance simulator)
GPGPU-Sim PTX: overriding embedded ptx with ptx file (PTX_SIM_USE_PTX_FILE is set)
GPGPU-Sim: Configuration options:

-save_embedded_ptx                      0 # saves ptx files embedded in binary as <n>.ptx
-keep                                   0 # keep intermediate files created by GPGPU-Sim when interfacing with external programs
-gpgpu_ptx_save_converted_ptxplus                    0 # Saved converted ptxplus to a file
-gpgpu_occupancy_sm_number                   75 # The SM number to pass to ptxas when getting register usage for computing GPU occupancy. This parameter is required in the config.
-ptx_opcode_latency_int           4,4,4,4,21 # Opcode latencies for integers <ADD,MAX,MUL,MAD,DIV,SHFL>Default 1,1,19,25,145,32
-ptx_opcode_latency_fp           4,4,4,4,39 # Opcode latencies for single precision floating points <ADD,MAX,MUL,MAD,DIV>Default 1,1,1,1,30
-ptx_opcode_latency_dp      64,64,64,64,330 # Opcode latencies for double precision floating points <ADD,MAX,MUL,MAD,DIV>Default 8,8,8,8,335
-ptx_opcode_latency_sfu                   21 # Opcode latencies for SFU instructionsDefault 8
-ptx_opcode_latency_tesnor                   64 # Opcode latencies for Tensor instructionsDefault 64
-ptx_opcode_initiation_int            2,2,2,2,2 # Opcode initiation intervals for integers <ADD,MAX,MUL,MAD,DIV,SHFL>Default 1,1,4,4,32,4
-ptx_opcode_initiation_fp            2,2,2,2,4 # Opcode initiation intervals for single precision floating points <ADD,MAX,MUL,MAD,DIV>Default 1,1,1,1,5
-ptx_opcode_initiation_dp      64,64,64,64,130 # Opcode initiation intervals for double precision floating points <ADD,MAX,MUL,MAD,DIV>Default 8,8,8,8,130
-ptx_opcode_initiation_sfu                    8 # Opcode initiation intervals for sfu instructionsDefault 8
-ptx_opcode_initiation_tensor                   64 # Opcode initiation intervals for tensor instructionsDefault 64
-cdp_latency         7200,8000,100,12000,1600 # CDP API latency <cudaStreamCreateWithFlags, cudaGetParameterBufferV2_init_perWarp, cudaGetParameterBufferV2_perKernel, cudaLaunchDeviceV2_init_perWarp, cudaLaunchDevicV2_perKernel>Default 7200,8000,100,12000,1600
-network_mode                           2 # Interconnection network mode
-inter_config_file                   mesh # Interconnection network config file
-icnt_in_buffer_limit                  512 # in_buffer_limit
-icnt_out_buffer_limit                  512 # out_buffer_limit
-icnt_subnets                           2 # subnets
-icnt_arbiter_algo                      1 # arbiter_algo
-icnt_verbose                           0 # inct_verbose
-icnt_grant_cycles                      1 # grant_cycles
-gpgpu_ptx_use_cuobjdump                    1 # Use cuobjdump to extract ptx and sass from binaries
-gpgpu_experimental_lib_support                    0 # Try to extract code from cuda libraries [Broken because of unknown cudaGetExportTable]
-checkpoint_option                      0 #  checkpointing flag (0 = no checkpoint)
-checkpoint_kernel                      1 #  checkpointing during execution of which kernel (1- 1st kernel)
-checkpoint_CTA                         0 #  checkpointing after # of CTA (< less than total CTA)
-resume_option                          0 #  resume flag (0 = no resume)
-resume_kernel                          0 #  Resume from which kernel (1= 1st kernel)
-resume_CTA                             0 #  resume from which CTA 
-checkpoint_CTA_t                       0 #  resume from which CTA 
-checkpoint_insn_Y                      0 #  resume from which CTA 
-gpgpu_ptx_convert_to_ptxplus                    0 # Convert SASS (native ISA) to ptxplus and run ptxplus
-gpgpu_ptx_force_max_capability                   75 # Force maximum compute capability
-gpgpu_ptx_inst_debug_to_file                    0 # Dump executed instructions' debug information to file
-gpgpu_ptx_inst_debug_file       inst_debug.txt # Executed instructions' debug output file
-gpgpu_ptx_inst_debug_thread_uid                    1 # Thread UID for executed instructions' debug output
-gpgpu_simd_model                       1 # 1 = post-dominator
-gpgpu_shader_core_pipeline              1024:32 # shader core pipeline config, i.e., {<nthread>:<warpsize>}
-gpgpu_tex_cache:l1  N:4:128:256,L:R:m:N:L,T:512:8,128:2 # per-shader L1 texture cache  (READ-ONLY) config  {<nsets>:<bsize>:<assoc>,<rep>:<wr>:<alloc>:<wr_alloc>,<mshr>:<N>:<merge>,<mq>:<rf>}
-gpgpu_const_cache:l1 N:128:64:8,L:R:f:N:L,S:2:64,4 # per-shader L1 constant memory cache  (READ-ONLY) config  {<nsets>:<bsize>:<assoc>,<rep>:<wr>:<alloc>:<wr_alloc>,<mshr>:<N>:<merge>,<mq>} 
-gpgpu_cache:il1     N:64:128:16,L:R:f:N:L,S:2:48,4 # shader L1 instruction cache config  {<nsets>:<bsize>:<assoc>,<rep>:<wr>:<alloc>:<wr_alloc>,<mshr>:<N>:<merge>,<mq>} 
-gpgpu_cache:dl1     S:4:128:64,L:T:m:L:L,A:256:32,16:0,32 # per-shader L1 data cache config  {<nsets>:<bsize>:<assoc>,<rep>:<wr>:<alloc>:<wr_alloc>,<mshr>:<N>:<merge>,<mq> | none}
-gpgpu_l1_cache_write_ratio                   25 # L1D write ratio
-gpgpu_l1_banks                         4 # The number of L1 cache banks
-gpgpu_l1_banks_byte_interleaving                   32 # l1 banks byte interleaving granularity
-gpgpu_l1_banks_hashing_function                    0 # l1 banks hashing function
-gpgpu_l1_latency                      32 # L1 Hit Latency
-gpgpu_smem_latency                    30 # smem Latency
-gpgpu_cache:dl1PrefL1                 none # per-shader L1 data cache config  {<nsets>:<bsize>:<assoc>,<rep>:<wr>:<alloc>:<wr_alloc>,<mshr>:<N>:<merge>,<mq> | none}
-gpgpu_cache:dl1PrefShared                 none # per-shader L1 data cache config  {<nsets>:<bsize>:<assoc>,<rep>:<wr>:<alloc>:<wr_alloc>,<mshr>:<N>:<merge>,<mq> | none}
-gpgpu_gmem_skip_L1D                    0 # global memory access skip L1D cache (implements -Xptxas -dlcm=cg, default=no skip)
-gpgpu_perfect_mem                      0 # enable perfect memory mode (no cache miss)
-n_regfile_gating_group                    4 # group of lanes that should be read/written together)
-gpgpu_clock_gated_reg_file                    0 # enable clock gated reg file for power calculations
-gpgpu_clock_gated_lanes                    0 # enable clock gated lanes for power calculations
-gpgpu_shader_registers                65536 # Number of registers per shader core. Limits number of concurrent CTAs. (default 8192)
-gpgpu_registers_per_block                65536 # Maximum number of registers per CTA. (default 8192)
-gpgpu_ignore_resources_limitation                    0 # gpgpu_ignore_resources_limitation (default 0)
-gpgpu_shader_cta                      16 # Maximum number of concurrent CTAs in shader (default 32)
-gpgpu_num_cta_barriers                   16 # Maximum number of named barriers per CTA (default 16)
-gpgpu_n_clusters                      30 # number of processing clusters
-gpgpu_n_cores_per_cluster                    1 # number of simd cores per cluster
-gpgpu_n_cluster_ejection_buffer_size                   32 # number of packets in ejection buffer
-gpgpu_n_ldst_response_buffer_size                    2 # number of response packets in ld/st unit ejection buffer
-gpgpu_shmem_per_block                49152 # Size of shared memory per thread block or CTA (default 48kB)
-gpgpu_shmem_size                   65536 # Size of shared memory per shader core (default 16kB)
-gpgpu_shmem_option                 32,64 # Option list of shared memory sizes
-gpgpu_unified_l1d_size                   96 # Size of unified data cache(L1D + shared memory) in KB
-gpgpu_adaptive_cache_config                    1 # adaptive_cache_config
-gpgpu_shmem_sizeDefault                65536 # Size of shared memory per shader core (default 16kB)
-gpgpu_shmem_size_PrefL1                16384 # Size of shared memory per shader core (default 16kB)
-gpgpu_shmem_size_PrefShared                16384 # Size of shared memory per shader core (default 16kB)
-gpgpu_shmem_num_banks                   32 # Number of banks in the shared memory in each shader core (default 16)
-gpgpu_shmem_limited_broadcast                    0 # Limit shared memory to do one broadcast per cycle (default on)
-gpgpu_shmem_warp_parts                    1 # Number of portions a warp is divided into for shared memory bank conflict check 
-gpgpu_mem_unit_ports                    1 # The number of memory transactions allowed per core cycle
-gpgpu_shmem_warp_parts                    1 # Number of portions a warp is divided into for shared memory bank conflict check 
-gpgpu_warpdistro_shader                   -1 # Specify which shader core to collect the warp size distribution from
-gpgpu_warp_issue_shader                    0 # Specify which shader core to collect the warp issue distribution from
-gpgpu_local_mem_map                    1 # Mapping from local memory space address to simulated GPU physical address space (default = enabled)
-gpgpu_num_reg_banks                    8 # Number of register banks (default = 8)
-gpgpu_reg_bank_use_warp_id                    0 # Use warp ID in mapping registers to banks (default = off)
-gpgpu_sub_core_model                    1 # Sub Core Volta/Pascal model (default = off)
-gpgpu_enable_specialized_operand_collector                    0 # enable_specialized_operand_collector
-gpgpu_operand_collector_num_units_sp                    4 # number of collector units (default = 4)
-gpgpu_operand_collector_num_units_dp                    0 # number of collector units (default = 0)
-gpgpu_operand_collector_num_units_sfu                    4 # number of collector units (default = 4)
-gpgpu_operand_collector_num_units_int                    0 # number of collector units (default = 0)
-gpgpu_operand_collector_num_units_tensor_core                    4 # number of collector units (default = 4)
-gpgpu_operand_collector_num_units_mem                    2 # number of collector units (default = 2)
-gpgpu_operand_collector_num_units_gen                    8 # number of collector units (default = 0)
-gpgpu_operand_collector_num_in_ports_sp                    1 # number of collector unit in ports (default = 1)
-gpgpu_operand_collector_num_in_ports_dp                    0 # number of collector unit in ports (default = 0)
-gpgpu_operand_collector_num_in_ports_sfu                    1 # number of collector unit in ports (default = 1)
-gpgpu_operand_collector_num_in_ports_int                    0 # number of collector unit in ports (default = 0)
-gpgpu_operand_collector_num_in_ports_tensor_core                    1 # number of collector unit in ports (default = 1)
-gpgpu_operand_collector_num_in_ports_mem                    1 # number of collector unit in ports (default = 1)
-gpgpu_operand_collector_num_in_ports_gen                    8 # number of collector unit in ports (default = 0)
-gpgpu_operand_collector_num_out_ports_sp                    1 # number of collector unit in ports (default = 1)
-gpgpu_operand_collector_num_out_ports_dp                    0 # number of collector unit in ports (default = 0)
-gpgpu_operand_collector_num_out_ports_sfu                    1 # number of collector unit in ports (default = 1)
-gpgpu_operand_collector_num_out_ports_int                    0 # number of collector unit in ports (default = 0)
-gpgpu_operand_collector_num_out_ports_tensor_core                    1 # number of collector unit in ports (default = 1)
-gpgpu_operand_collector_num_out_ports_mem                    1 # number of collector unit in ports (default = 1)
-gpgpu_operand_collector_num_out_ports_gen                    8 # number of collector unit in ports (default = 0)
-gpgpu_coalesce_arch                   75 # Coalescing arch (GT200 = 13, Fermi = 20)
-gpgpu_num_sched_per_core                    4 # Number of warp schedulers per core
-gpgpu_max_insn_issue_per_warp                    1 # Max number of instructions that can be issued per warp in one cycle by scheduler (either 1 or 2)
-gpgpu_dual_issue_diff_exec_units                    1 # should dual issue use two different execution unit resources (Default = 1)
-gpgpu_simt_core_sim_order                    1 # Select the simulation order of cores in a cluster (0=Fix, 1=Round-Robin)
-gpgpu_pipeline_widths 4,4,4,4,4,4,4,4,4,4,8,4,4 # Pipeline widths ID_OC_SP,ID_OC_DP,ID_OC_INT,ID_OC_SFU,ID_OC_MEM,OC_EX_SP,OC_EX_DP,OC_EX_INT,OC_EX_SFU,OC_EX_MEM,EX_WB,ID_OC_TENSOR_CORE,OC_EX_TENSOR_CORE
-gpgpu_tensor_core_avail                    1 # Tensor Core Available (default=0)
-gpgpu_num_sp_units                     4 # Number of SP units (default=1)
-gpgpu_num_dp_units                     4 # Number of DP units (default=0)
-gpgpu_num_int_units                    4 # Number of INT units (default=0)
-gpgpu_num_sfu_units                    4 # Number of SF units (default=1)
-gpgpu_num_tensor_core_units                    4 # Number of tensor_core units (default=1)
-gpgpu_num_mem_units                    1 # Number if ldst units (default=1) WARNING: not hooked up to anything
-kernelBased                            0 # Does the approximator work as kernel based (default = 0)
-kernelId                               0 # Kernel ids where the approximation applied 
-hybridApproximation                    0 # Hybrid approximator (default = 0)
-errorPercentage                       50 # Error percentage (number of max flushed accesses)
-l1dApproximator                        0 # Memory access delete unit (default = 0)
-l1dSlicingAccessInterval                 5000 # Slice access window length (default = 1000)
-l2Approximator                         1 # Memory access delete unit (default = 0)
-l2SlicingAccessInterval                 5000 # Slice access window length (default = 1000)
-smOccupancy                            0 # sm occupancy (default = 0)
-smSlicingInterval                   5000 # Slice access window length (default = 1000)
-gpgpu_scheduler                      lrr # Scheduler configuration: < lrr | gto | two_level_active > If two_level_active:<num_active_warps>:<inner_prioritization>:<outer_prioritization>For complete list of prioritization values see shader.h enum scheduler_prioritization_typeDefault: gto
-gpgpu_concurrent_kernel_sm                    0 # Support concurrent kernels on a SM (default = disabled)
-gpgpu_perfect_inst_const_cache                    1 # perfect inst and const cache mode, so all inst and const hits in the cache(default = disabled)
-gpgpu_inst_fetch_throughput                    4 # the number of fetched intruction per warp each cycle
-gpgpu_reg_file_port_throughput                    2 # the number ports of the register file
-specialized_unit_1         0,4,4,4,4,BRA # specialized unit config {<enabled>,<num_units>:<latency>:<initiation>,<ID_OC_SPEC>:<OC_EX_SPEC>,<NAME>}
-specialized_unit_2         0,4,4,4,4,BRA # specialized unit config {<enabled>,<num_units>:<latency>:<initiation>,<ID_OC_SPEC>:<OC_EX_SPEC>,<NAME>}
-specialized_unit_3         0,4,4,4,4,BRA # specialized unit config {<enabled>,<num_units>:<latency>:<initiation>,<ID_OC_SPEC>:<OC_EX_SPEC>,<NAME>}
-specialized_unit_4         0,4,4,4,4,BRA # specialized unit config {<enabled>,<num_units>:<latency>:<initiation>,<ID_OC_SPEC>:<OC_EX_SPEC>,<NAME>}
-specialized_unit_5         0,4,4,4,4,BRA # specialized unit config {<enabled>,<num_units>:<latency>:<initiation>,<ID_OC_SPEC>:<OC_EX_SPEC>,<NAME>}
-specialized_unit_6         0,4,4,4,4,BRA # specialized unit config {<enabled>,<num_units>:<latency>:<initiation>,<ID_OC_SPEC>:<OC_EX_SPEC>,<NAME>}
-specialized_unit_7         0,4,4,4,4,BRA # specialized unit config {<enabled>,<num_units>:<latency>:<initiation>,<ID_OC_SPEC>:<OC_EX_SPEC>,<NAME>}
-specialized_unit_8         0,4,4,4,4,BRA # specialized unit config {<enabled>,<num_units>:<latency>:<initiation>,<ID_OC_SPEC>:<OC_EX_SPEC>,<NAME>}
-gpgpu_perf_sim_memcpy                    1 # Fill the L2 cache on memcpy
-gpgpu_simple_dram_model                    0 # simple_dram_model with fixed latency and BW
-gpgpu_dram_scheduler                    1 # 0 = fifo, 1 = FR-FCFS (defaul)
-gpgpu_dram_partition_queues          64:64:64:64 # i2$:$2d:d2$:$2i
-l2_ideal                               0 # Use a ideal L2 cache that always hit
-gpgpu_cache:dl2     S:64:128:16,L:B:m:L:P,A:192:4,32:0,32 # unified banked L2 data cache config  {<nsets>:<bsize>:<assoc>,<rep>:<wr>:<alloc>:<wr_alloc>,<mshr>:<N>:<merge>,<mq>}
-gpgpu_cache:dl2_texture_only                    0 # L2 cache used for texture only
-gpgpu_n_mem                           12 # number of memory modules (e.g. memory controllers) in gpu
-gpgpu_n_sub_partition_per_mchannel                    2 # number of memory subpartition in each memory module
-gpgpu_n_mem_per_ctrlr                    1 # number of memory chips per memory controller
-gpgpu_memlatency_stat                   14 # track and display latency statistics 0x2 enables MC, 0x4 enables queue logs
-gpgpu_frfcfs_dram_sched_queue_size                   64 # 0 = unlimited (default); # entries per chip
-gpgpu_dram_return_queue_size                  192 # 0 = unlimited (default); # entries per chip
-gpgpu_dram_buswidth                    2 # default = 4 bytes (8 bytes per cycle at DDR)
-gpgpu_dram_burst_length                   16 # Burst length of each DRAM request (default = 4 data bus cycle)
-dram_data_command_freq_ratio                    4 # Frequency ratio between DRAM data bus and command bus (default = 2 times, i.e. DDR)
-gpgpu_dram_timing_opt nbk=16:CCD=4:RRD=12:RCD=24:RAS=55:RP=24:RC=78:CL=24:WL=8:CDLR=10:WR=24:nbkgrp=4:CCDL=6:RTPL=4 # DRAM timing parameters = {nbk:tCCD:tRRD:tRCD:tRAS:tRP:tRC:CL:WL:tCDLR:tWR:nbkgrp:tCCDL:tRTPL}
-gpgpu_l2_rop_latency                  194 # ROP queue latency (default 85)
-dram_latency                          96 # DRAM latency (default 30)
-dram_dual_bus_interface                    0 # dual_bus_interface (default = 0) 
-dram_bnk_indexing_policy                    0 # dram_bnk_indexing_policy (0 = normal indexing, 1 = Xoring with the higher bits) (Default = 0)
-dram_bnkgrp_indexing_policy                    1 # dram_bnkgrp_indexing_policy (0 = take higher bits, 1 = take lower bits) (Default = 0)
-dram_seperate_write_queue_enable                    0 # Seperate_Write_Queue_Enable
-dram_write_queue_size             32:28:16 # Write_Queue_Size
-dram_elimnate_rw_turnaround                    0 # elimnate_rw_turnaround i.e set tWTR and tRTW = 0
-icnt_flit_size                        40 # icnt_flit_size
-icnt_flit_size                        40 # icnt_flit_size
-mem_profiler                           0 # memory access runtime profiling (0 = not enabled)
-gpgpu_mem_addr_mapping dramid@8;00000000.00000000.00000000.00000000.0000RRRR.RRRRRRRR.RBBBCCCC.BCCSSSSS # mapping memory address to dram model {dramid@<start bit>;<memory address map>}
-gpgpu_mem_addr_test                    0 # run sweep test to check address mapping for aliased address
-gpgpu_mem_address_mask                    1 # 0 = old addressing mask, 1 = new addressing mask, 2 = new add. mask + flipped bank sel and chip sel bits
-gpgpu_memory_partition_indexing                    0 # 0 = no indexing, 1 = bitwise xoring, 2 = IPoly, 3 = custom indexing
-accelwattch_xml_file accelwattch_sass_sim.xml # AccelWattch XML file
-power_simulation_enabled                    1 # Turn on power simulator (1=On, 0=Off)
-power_per_cycle_dump                    1 # Dump detailed power output each cycle
-hw_perf_file_name            hw_perf.csv # Hardware Performance Statistics file
-hw_perf_bench_name    hw_perf_bench_name # Kernel Name in Hardware Performance Statistics file
-power_simulation_mode                    0 # Switch performance counter input for power simulation (0=Sim, 1=HW, 2=HW-Sim Hybrid)
-dvfs_enabled                           1 # Turn on DVFS for power model
-aggregate_power_stats                    0 # Accumulate power across all kernels
-accelwattch_hybrid_perfsim_L1_RH                    0 # Get L1 Read Hits for Accelwattch-Hybrid from Accel-Sim
-accelwattch_hybrid_perfsim_L1_RM                    0 # Get L1 Read Misses for Accelwattch-Hybrid from Accel-Sim
-accelwattch_hybrid_perfsim_L1_WH                    0 # Get L1 Write Hits for Accelwattch-Hybrid from Accel-Sim
-accelwattch_hybrid_perfsim_L1_WM                    0 # Get L1 Write Misses for Accelwattch-Hybrid from Accel-Sim
-accelwattch_hybrid_perfsim_L2_RH                    0 # Get L2 Read Hits for Accelwattch-Hybrid from Accel-Sim
-accelwattch_hybrid_perfsim_L2_RM                    0 # Get L2 Read Misses for Accelwattch-Hybrid from Accel-Sim
-accelwattch_hybrid_perfsim_L2_WH                    0 # Get L2 Write Hits for Accelwattch-Hybrid from Accel-Sim
-accelwattch_hybrid_perfsim_L2_WM                    0 # Get L2 Write Misses for Accelwattch-Hybrid from Accel-Sim
-accelwattch_hybrid_perfsim_CC_ACC                    0 # Get Constant Cache Acesses for Accelwattch-Hybrid from Accel-Sim
-accelwattch_hybrid_perfsim_SHARED_ACC                    0 # Get Shared Memory Acesses for Accelwattch-Hybrid from Accel-Sim
-accelwattch_hybrid_perfsim_DRAM_RD                    0 # Get DRAM Reads for Accelwattch-Hybrid from Accel-Sim
-accelwattch_hybrid_perfsim_DRAM_WR                    0 # Get DRAM Writes for Accelwattch-Hybrid from Accel-Sim
-accelwattch_hybrid_perfsim_NOC                    0 # Get Interconnect Acesses for Accelwattch-Hybrid from Accel-Sim
-accelwattch_hybrid_perfsim_PIPE_DUTY                    0 # Get Pipeline Duty Cycle Acesses for Accelwattch-Hybrid from Accel-Sim
-accelwattch_hybrid_perfsim_NUM_SM_IDLE                    0 # Get Number of Idle SMs for Accelwattch-Hybrid from Accel-Sim
-accelwattch_hybrid_perfsim_CYCLES                    0 # Get Executed Cycles for Accelwattch-Hybrid from Accel-Sim
-accelwattch_hybrid_perfsim_VOLTAGE                    0 # Get Chip Voltage for Accelwattch-Hybrid from Accel-Sim
-power_trace_enabled                    0 # produce a file for the power trace (1=On, 0=Off)
-power_trace_zlevel                     0 # Compression level of the power trace output log (0=no comp, 9=highest)
-steady_power_levels_enabled                    0 # produce a file for the steady power levels (1=On, 0=Off)
-steady_state_definition                  8:4 # allowed deviation:number of samples
-gpgpu_max_cycle                        0 # terminates gpu simulation early (0 = no limit)
-gpgpu_max_insn                         0 # terminates gpu simulation early (0 = no limit)
-gpgpu_max_cta                          0 # terminates gpu simulation early (0 = no limit)
-gpgpu_max_completed_cta                    0 # terminates gpu simulation early (0 = no limit)
-gpgpu_runtime_stat                  1000 # display runtime statistics such as dram utilization {<freq>:<flag>}
-liveness_message_freq                    1 # Minimum number of seconds between simulation liveness messages (0 = always print)
-gpgpu_compute_capability_major                    7 # Major compute capability version number
-gpgpu_compute_capability_minor                    5 # Minor compute capability version number
-gpgpu_flush_l1_cache                    1 # Flush L1 cache at the end of each kernel call
-gpgpu_flush_l2_cache                    0 # Flush L2 cache at the end of each kernel call
-gpgpu_deadlock_detect                    1 # Stop the simulation at deadlock (1=on (default), 0=off)
-gpgpu_ptx_instruction_classification                    0 # if enabled will classify ptx instruction types per kernel (Max 255 kernels now)
-gpgpu_ptx_sim_mode                     0 # Select between Performance (default) or Functional simulation (1)
-gpgpu_clock_domains 1365:1365:1365:3500.5 # Clock Domain Frequencies in MhZ {<Core Clock>:<ICNT Clock>:<L2 Clock>:<DRAM Clock>}
-gpgpu_max_concurrent_kernel                  128 # maximum kernels that can run concurrently on GPU, set this value according to max resident grids for your compute capability
-gpgpu_cflog_interval                    0 # Interval between each snapshot in control flow logger
-visualizer_enabled                     0 # Turn on visualizer output (1=On, 0=Off)
-visualizer_outputfile                 NULL # Specifies the output log file for visualizer
-visualizer_zlevel                      6 # Compression level of the visualizer output log (0=no comp, 9=highest)
-gpgpu_stack_size_limit                 1024 # GPU thread stack size
-gpgpu_heap_size_limit              8388608 # GPU malloc heap size 
-gpgpu_runtime_sync_depth_limit                    2 # GPU device runtime synchronize depth
-gpgpu_runtime_pending_launch_count_limit                 2048 # GPU device runtime pending launch count
-trace_enabled                          0 # Turn on traces
-trace_components                    none # comma seperated list of traces to enable. Complete list found in trace_streams.tup. Default none
-trace_sampling_core                    0 # The core which is printed using CORE_DPRINTF. Default 0
-trace_sampling_memory_partition                   -1 # The memory partition which is printed using MEMPART_DPRINTF. Default -1 (i.e. all)
-enable_ptx_file_line_stats                    1 # Turn on PTX source line statistic profiling. (1 = On)
-ptx_line_stats_filename gpgpu_inst_stats.txt # Output file for PTX source line statistics.
-gpgpu_kernel_launch_latency                 5000 # Kernel launch latency in cycles. Default: 0
-gpgpu_cdp_enabled                      0 # Turn on CDP
-gpgpu_TB_launch_latency                    0 # thread block launch latency in cycles. Default: 0
-mem_runtime_stat                     100 # memory access runtime profiling sampling freq
-L1D_metrics                            0 # memory access runtime profiling for L1 data cache
-noncoal_metrics                        0 # memory access runtime profiling for shared memory
-L2_metrics                             0 # memory access runtime profiling for L2 cache
-DRAM_metrics                           0 # memory access runtime profiling for DRAM
-Shmem_metrics                          0 # memory access runtime profiling for noncoalesced accesses
-store_enable                           0 # Enable stores for memory profiling
-accumulate_stats                       0 # Accumulate stats for the memory profiling
-dump_enable                            0 # Process dump enable flag - (def = 0)
-flush_l1d                              0 # Enable flushings for L1D caches - (default = 0)
-flush_l2                               0 # Enable flushings for L2 caches - (default = 0)
-flush_dram                             0 # Enable flushings for DRAM - (default = 0)
-flush_noncoalesceds                    0 # Enable flushings for non coalesced accesses - (default = 0)
-flush_shmems                           0 # Enable flushings for shared memory accesses - (default = 0)
-error_percentage                       2 # Error percentage for the flushes - (default = 1)
-flush_acc_type                         2 # Flush access types
-monitor_sampling_cycle                  200 # Monitoring sampling cycle - (default = 5000)
DRAM Timing Options:
nbk                                    16 # number of banks
CCD                                     4 # column to column delay
RRD                                    12 # minimal delay between activation of rows in different banks
RCD                                    24 # row to column delay
RAS                                    55 # time needed to activate row
RP                                     24 # time needed to precharge (deactivate) row
RC                                     78 # row cycle time
CDLR                                   10 # switching from write to read (changes tWTR)
WR                                     24 # last data-in to row precharge
CL                                     24 # CAS latency
WL                                      8 # Write latency
nbkgrp                                  4 # number of bank groups
CCDL                                    6 # column to column delay between accesses to different bank groups
RTPL                                    4 # read to precharge delay between accesses to different bank groups
Total number of memory sub partition = 24
addr_dec_mask[CHIP]  = 0000000000000000 	high:64 low:0
addr_dec_mask[BK]    = 0000000000007080 	high:15 low:7
addr_dec_mask[ROW]   = 000000000fff8000 	high:28 low:15
addr_dec_mask[COL]   = 0000000000000f7f 	high:12 low:0
addr_dec_mask[BURST] = 000000000000001f 	high:5 low:0
sub_partition_id_mask = 0000000000000080
GPGPU-Sim uArch: clock freqs: 1365000000.000000:1365000000.000000:1365000000.000000:3500500000.000000
GPGPU-Sim uArch: clock periods: 0.00000000073260073260:0.00000000073260073260:0.00000000073260073260:0.00000000028567347522
*** Initializing Memory Statistics ***
--------------------------------------------------------------
L2 access stats (for 0'th subPartition) 
--	Kid = 0 || L2 Acc = 1019587, -- Miss = 337385, rate = 0.3309, -- PendHits = 1156, rate = 0.0011-- ResFail = 856, rate = 0.0008
Error Per = 50 || Flushes = 6747 || slicingInterval = 5000
--------------------------------------------------------------
L2 access stats (for 1'th subPartition) 
--	Kid = 0 || L2 Acc = 1020777, -- Miss = 326479, rate = 0.3198, -- PendHits = 673, rate = 0.0007-- ResFail = 1794, rate = 0.0018
Error Per = 50 || Flushes = 6529 || slicingInterval = 5000
--------------------------------------------------------------
L2 access stats (for 2'th subPartition) 
--	Kid = 0 || L2 Acc = 1018472, -- Miss = 327941, rate = 0.3220, -- PendHits = 601, rate = 0.0006-- ResFail = 678, rate = 0.0007
Error Per = 50 || Flushes = 6558 || slicingInterval = 5000
--------------------------------------------------------------
L2 access stats (for 3'th subPartition) 
--	Kid = 0 || L2 Acc = 1020782, -- Miss = 327044, rate = 0.3204, -- PendHits = 658, rate = 0.0006-- ResFail = 2469, rate = 0.0024
Error Per = 50 || Flushes = 6540 || slicingInterval = 5000
--------------------------------------------------------------
L2 access stats (for 4'th subPartition) 
--	Kid = 0 || L2 Acc = 1007352, -- Miss = 324871, rate = 0.3225, -- PendHits = 686, rate = 0.0007-- ResFail = 1451, rate = 0.0014
Error Per = 50 || Flushes = 6497 || slicingInterval = 5000
--------------------------------------------------------------
L2 access stats (for 5'th subPartition) 
--	Kid = 0 || L2 Acc = 1011059, -- Miss = 326751, rate = 0.3232, -- PendHits = 644, rate = 0.0006-- ResFail = 484, rate = 0.0005
Error Per = 50 || Flushes = 6535 || slicingInterval = 5000
--------------------------------------------------------------
L2 access stats (for 6'th subPartition) 
--	Kid = 0 || L2 Acc = 1023077, -- Miss = 328587, rate = 0.3212, -- PendHits = 658, rate = 0.0006-- ResFail = 827, rate = 0.0008
Error Per = 50 || Flushes = 6571 || slicingInterval = 5000
--------------------------------------------------------------
L2 access stats (for 7'th subPartition) 
--	Kid = 0 || L2 Acc = 1024106, -- Miss = 327789, rate = 0.3201, -- PendHits = 640, rate = 0.0006-- ResFail = 525, rate = 0.0005
Error Per = 50 || Flushes = 6555 || slicingInterval = 5000
--------------------------------------------------------------
L2 access stats (for 8'th subPartition) 
--	Kid = 0 || L2 Acc = 1026523, -- Miss = 340201, rate = 0.3314, -- PendHits = 934, rate = 0.0009-- ResFail = 3173, rate = 0.0031
Error Per = 50 || Flushes = 6804 || slicingInterval = 5000
--------------------------------------------------------------
L2 access stats (for 9'th subPartition) 
--	Kid = 0 || L2 Acc = 1014264, -- Miss = 328693, rate = 0.3241, -- PendHits = 705, rate = 0.0007-- ResFail = 2094, rate = 0.0021
Error Per = 50 || Flushes = 6573 || slicingInterval = 5000
--------------------------------------------------------------
L2 access stats (for 10'th subPartition) 
--	Kid = 0 || L2 Acc = 1018201, -- Miss = 329822, rate = 0.3239, -- PendHits = 651, rate = 0.0006-- ResFail = 501, rate = 0.0005
Error Per = 50 || Flushes = 6596 || slicingInterval = 5000
--------------------------------------------------------------
L2 access stats (for 11'th subPartition) 
--	Kid = 0 || L2 Acc = 1014325, -- Miss = 328998, rate = 0.3244, -- PendHits = 682, rate = 0.0007-- ResFail = 277, rate = 0.0003
Error Per = 50 || Flushes = 6579 || slicingInterval = 5000
--------------------------------------------------------------
L2 access stats (for 12'th subPartition) 
--	Kid = 0 || L2 Acc = 1019341, -- Miss = 345900, rate = 0.3393, -- PendHits = 831, rate = 0.0008-- ResFail = 1200, rate = 0.0012
Error Per = 50 || Flushes = 6918 || slicingInterval = 5000
--------------------------------------------------------------
L2 access stats (for 13'th subPartition) 
--	Kid = 0 || L2 Acc = 1017785, -- Miss = 328966, rate = 0.3232, -- PendHits = 735, rate = 0.0007-- ResFail = 609, rate = 0.0006
Error Per = 50 || Flushes = 6579 || slicingInterval = 5000
--------------------------------------------------------------
L2 access stats (for 14'th subPartition) 
--	Kid = 0 || L2 Acc = 1019953, -- Miss = 332688, rate = 0.3262, -- PendHits = 691, rate = 0.0007-- ResFail = 979, rate = 0.0010
Error Per = 50 || Flushes = 6653 || slicingInterval = 5000
--------------------------------------------------------------
L2 access stats (for 15'th subPartition) 
--	Kid = 0 || L2 Acc = 1023971, -- Miss = 328071, rate = 0.3204, -- PendHits = 633, rate = 0.0006-- ResFail = 1265, rate = 0.0012
Error Per = 50 || Flushes = 6561 || slicingInterval = 5000
--------------------------------------------------------------
L2 access stats (for 16'th subPartition) 
--	Kid = 0 || L2 Acc = 1026305, -- Miss = 329836, rate = 0.3214, -- PendHits = 853, rate = 0.0008-- ResFail = 140, rate = 0.0001
Error Per = 50 || Flushes = 6596 || slicingInterval = 5000
--------------------------------------------------------------
L2 access stats (for 17'th subPartition) 
--	Kid = 0 || L2 Acc = 999099, -- Miss = 328117, rate = 0.3284, -- PendHits = 688, rate = 0.0007-- ResFail = 467, rate = 0.0005
Error Per = 50 || Flushes = 6562 || slicingInterval = 5000
--------------------------------------------------------------
L2 access stats (for 18'th subPartition) 
--	Kid = 0 || L2 Acc = 1012663, -- Miss = 327136, rate = 0.3230, -- PendHits = 636, rate = 0.0006-- ResFail = 1630, rate = 0.0016
Error Per = 50 || Flushes = 6542 || slicingInterval = 5000
--------------------------------------------------------------
L2 access stats (for 19'th subPartition) 
--	Kid = 0 || L2 Acc = 1025078, -- Miss = 325601, rate = 0.3176, -- PendHits = 628, rate = 0.0006-- ResFail = 1393, rate = 0.0014
Error Per = 50 || Flushes = 6512 || slicingInterval = 5000
--------------------------------------------------------------
L2 access stats (for 20'th subPartition) 
--	Kid = 0 || L2 Acc = 1018232, -- Miss = 324866, rate = 0.3190, -- PendHits = 640, rate = 0.0006-- ResFail = 748, rate = 0.0007
Error Per = 50 || Flushes = 6497 || slicingInterval = 5000
--------------------------------------------------------------
L2 access stats (for 21'th subPartition) 
--	Kid = 0 || L2 Acc = 1024586, -- Miss = 326530, rate = 0.3187, -- PendHits = 646, rate = 0.0006-- ResFail = 1702, rate = 0.0017
Error Per = 50 || Flushes = 6530 || slicingInterval = 5000
--------------------------------------------------------------
L2 access stats (for 22'th subPartition) 
--	Kid = 0 || L2 Acc = 1036526, -- Miss = 359704, rate = 0.3470, -- PendHits = 2248, rate = 0.0022-- ResFail = 260070, rate = 0.2509
Error Per = 50 || Flushes = 7194 || slicingInterval = 5000
--------------------------------------------------------------
L2 access stats (for 23'th subPartition) 
--	Kid = 0 || L2 Acc = 1018755, -- Miss = 329327, rate = 0.3233, -- PendHits = 1259, rate = 0.0012-- ResFail = 4024, rate = 0.0039
Error Per = 50 || Flushes = 6586 || slicingInterval = 5000
71222c4f3617a8b1cabdfefbc2d5f110  /home/pars/Documents/expSetups/a3/spmv_base_L2_50__higgsTwitter
Extracting PTX file and ptxas options    1: spmv_base_L2_50__higgsTwitter.1.sm_75.ptx -arch=sm_75
GPGPU-Sim uArch: performance model initialization complete.
Parallel calisiyor
self exe links to: /home/pars/Documents/expSetups/a3/spmv_base_L2_50__higgsTwitter
self exe links to: /home/pars/Documents/expSetups/a3/spmv_base_L2_50__higgsTwitter
11.0
GPGPU-Sim PTX: __cudaRegisterFatBinary, fat_cubin_handle = 1, filename=default
self exe links to: /home/pars/Documents/expSetups/a3/spmv_base_L2_50__higgsTwitter
Running md5sum using "md5sum /home/pars/Documents/expSetups/a3/spmv_base_L2_50__higgsTwitter "
self exe links to: /home/pars/Documents/expSetups/a3/spmv_base_L2_50__higgsTwitter
Extracting specific PTX file named spmv_base_L2_50__higgsTwitter.1.sm_75.ptx 
GPGPU-Sim PTX: __cudaRegisterFunction _Z15spmv_csr_scalariPKmPKiPKfS4_Pf : hostFun 0x0x55933728a37b, fat_cubin_handle = 1
GPGPU-Sim PTX: Parsing spmv_base_L2_50__higgsTwitter.1.sm_75.ptx
GPGPU-Sim PTX: Warning -- ignoring pragma 'nounroll'
GPGPU-Sim PTX: instruction assembly for function '_Z15spmv_csr_scalariPKmPKiPKfS4_Pf'...   done.
GPGPU-Sim PTX: finished parsing EMBEDDED .ptx file spmv_base_L2_50__higgsTwitter.1.sm_75.ptx
GPGPU-Sim PTX: loading globals with explicit initializers... 
GPGPU-Sim PTX: finished loading globals (0 bytes total).
GPGPU-Sim PTX: loading constants with explicit initializers...  done.
GPGPU-Sim PTX: Loading PTXInfo from spmv_base_L2_50__higgsTwitter.1.sm_75.ptx
GPGPU-Sim PTX: Kernel '_Z15spmv_csr_scalariPKmPKiPKfS4_Pf' : regs=58, lmem=0, smem=0, cmem=400
Sparse Matrix-Vector Multiplication by Xuhao Chen
Reading (.mtx) input file ../../gardenia/datasets/higgs-twitter.mtx
Removing redundent edges... 0 redundent edges are removed
|V| 456626 |E| 14855819
This graph maintains both incomming and outgoing edge-list
Launching CUDA SpMV solver (1784 CTAs, 256 threads/CTA) ...
GPGPU-Sim PTX: Setting up arguments for 4 bytes starting at 0x7fffb4abf96c..
GPGPU-Sim PTX: Setting up arguments for 8 bytes starting at 0x7fffb4abf960..
GPGPU-Sim PTX: Setting up arguments for 8 bytes starting at 0x7fffb4abf958..
GPGPU-Sim PTX: Setting up arguments for 8 bytes starting at 0x7fffb4abf950..
GPGPU-Sim PTX: Setting up arguments for 8 bytes starting at 0x7fffb4abf948..
GPGPU-Sim PTX: Setting up arguments for 8 bytes starting at 0x7fffb4abf940..

GPGPU-Sim PTX: cudaLaunch for 0x0x55933728a37b (mode=performance simulation) on stream 0
GPGPU-Sim PTX: finding reconvergence points for '_Z15spmv_csr_scalariPKmPKiPKfS4_Pf'...
GPGPU-Sim PTX: Finding dominators for '_Z15spmv_csr_scalariPKmPKiPKfS4_Pf'...
GPGPU-Sim PTX: Finding immediate dominators for '_Z15spmv_csr_scalariPKmPKiPKfS4_Pf'...
GPGPU-Sim PTX: Finding postdominators for '_Z15spmv_csr_scalariPKmPKiPKfS4_Pf'...
GPGPU-Sim PTX: Finding immediate postdominators for '_Z15spmv_csr_scalariPKmPKiPKfS4_Pf'...
GPGPU-Sim PTX: pre-decoding instructions for '_Z15spmv_csr_scalariPKmPKiPKfS4_Pf'...
GPGPU-Sim PTX: reconvergence points for _Z15spmv_csr_scalariPKmPKiPKfS4_Pf...
GPGPU-Sim PTX:  1 (potential) branch divergence @  PC=0x070 (spmv_base_L2_50__higgsTwitter.1.sm_75.ptx:44) @%p1 bra $L__BB0_9;
GPGPU-Sim PTX:    immediate post dominator      @  PC=0x2a8 (spmv_base_L2_50__higgsTwitter.1.sm_75.ptx:130) ret;
GPGPU-Sim PTX:  2 (potential) branch divergence @  PC=0x0c8 (spmv_base_L2_50__higgsTwitter.1.sm_75.ptx:56) @%p2 bra $L__BB0_8;
GPGPU-Sim PTX:    immediate post dominator      @  PC=0x2a0 (spmv_base_L2_50__higgsTwitter.1.sm_75.ptx:127) st.global.f32 [%rd4], %f27;
GPGPU-Sim PTX:  3 (potential) branch divergence @  PC=0x0f0 (spmv_base_L2_50__higgsTwitter.1.sm_75.ptx:62) @%p3 bra $L__BB0_5;
GPGPU-Sim PTX:    immediate post dominator      @  PC=0x178 (spmv_base_L2_50__higgsTwitter.1.sm_75.ptx:85) not.b32 %r18, %r2;
GPGPU-Sim PTX:  4 (potential) branch divergence @  PC=0x170 (spmv_base_L2_50__higgsTwitter.1.sm_75.ptx:82) @%p4 bra $L__BB0_4;
GPGPU-Sim PTX:    immediate post dominator      @  PC=0x178 (spmv_base_L2_50__higgsTwitter.1.sm_75.ptx:85) not.b32 %r18, %r2;
GPGPU-Sim PTX:  5 (potential) branch divergence @  PC=0x190 (spmv_base_L2_50__higgsTwitter.1.sm_75.ptx:88) @%p5 bra $L__BB0_8;
GPGPU-Sim PTX:    immediate post dominator      @  PC=0x2a0 (spmv_base_L2_50__higgsTwitter.1.sm_75.ptx:127) st.global.f32 [%rd4], %f27;
GPGPU-Sim PTX:  6 (potential) branch divergence @  PC=0x298 (spmv_base_L2_50__higgsTwitter.1.sm_75.ptx:124) @%p6 bra $L__BB0_7;
GPGPU-Sim PTX:    immediate post dominator      @  PC=0x2a0 (spmv_base_L2_50__higgsTwitter.1.sm_75.ptx:127) st.global.f32 [%rd4], %f27;
GPGPU-Sim PTX: ... end of reconvergence points for _Z15spmv_csr_scalariPKmPKiPKfS4_Pf
GPGPU-Sim PTX: ... done pre-decoding instructions for '_Z15spmv_csr_scalariPKmPKiPKfS4_Pf'.
GPGPU-Sim PTX: pushing kernel '_Z15spmv_csr_scalariPKmPKiPKfS4_Pf' to stream 0, gridDim= (1784,1,1) blockDim = (256,1,1) 
GPGPU-Sim uArch: Shader 0 bind to kernel 1 '_Z15spmv_csr_scalariPKmPKiPKfS4_Pf'
GPGPU-Sim uArch: CTA/core = 4, limited by: threads regs
GPGPU-Sim: Reconfigure L1 cache to 64KB
GPGPU-Sim uArch: Shader 1 bind to kernel 1 '_Z15spmv_csr_scalariPKmPKiPKfS4_Pf'
GPGPU-Sim uArch: Shader 2 bind to kernel 1 '_Z15spmv_csr_scalariPKmPKiPKfS4_Pf'
GPGPU-Sim uArch: Shader 3 bind to kernel 1 '_Z15spmv_csr_scalariPKmPKiPKfS4_Pf'
GPGPU-Sim uArch: Shader 4 bind to kernel 1 '_Z15spmv_csr_scalariPKmPKiPKfS4_Pf'
GPGPU-Sim uArch: Shader 5 bind to kernel 1 '_Z15spmv_csr_scalariPKmPKiPKfS4_Pf'
GPGPU-Sim uArch: Shader 6 bind to kernel 1 '_Z15spmv_csr_scalariPKmPKiPKfS4_Pf'
GPGPU-Sim uArch: Shader 7 bind to kernel 1 '_Z15spmv_csr_scalariPKmPKiPKfS4_Pf'
GPGPU-Sim uArch: Shader 8 bind to kernel 1 '_Z15spmv_csr_scalariPKmPKiPKfS4_Pf'
GPGPU-Sim uArch: Shader 9 bind to kernel 1 '_Z15spmv_csr_scalariPKmPKiPKfS4_Pf'
GPGPU-Sim uArch: Shader 10 bind to kernel 1 '_Z15spmv_csr_scalariPKmPKiPKfS4_Pf'
GPGPU-Sim uArch: Shader 11 bind to kernel 1 '_Z15spmv_csr_scalariPKmPKiPKfS4_Pf'
GPGPU-Sim uArch: Shader 12 bind to kernel 1 '_Z15spmv_csr_scalariPKmPKiPKfS4_Pf'
GPGPU-Sim uArch: Shader 13 bind to kernel 1 '_Z15spmv_csr_scalariPKmPKiPKfS4_Pf'
GPGPU-Sim uArch: Shader 14 bind to kernel 1 '_Z15spmv_csr_scalariPKmPKiPKfS4_Pf'
GPGPU-Sim uArch: Shader 15 bind to kernel 1 '_Z15spmv_csr_scalariPKmPKiPKfS4_Pf'
GPGPU-Sim uArch: Shader 16 bind to kernel 1 '_Z15spmv_csr_scalariPKmPKiPKfS4_Pf'
GPGPU-Sim uArch: Shader 17 bind to kernel 1 '_Z15spmv_csr_scalariPKmPKiPKfS4_Pf'
GPGPU-Sim uArch: Shader 18 bind to kernel 1 '_Z15spmv_csr_scalariPKmPKiPKfS4_Pf'
GPGPU-Sim uArch: Shader 19 bind to kernel 1 '_Z15spmv_csr_scalariPKmPKiPKfS4_Pf'
GPGPU-Sim uArch: Shader 20 bind to kernel 1 '_Z15spmv_csr_scalariPKmPKiPKfS4_Pf'
GPGPU-Sim uArch: Shader 21 bind to kernel 1 '_Z15spmv_csr_scalariPKmPKiPKfS4_Pf'
GPGPU-Sim uArch: Shader 22 bind to kernel 1 '_Z15spmv_csr_scalariPKmPKiPKfS4_Pf'
GPGPU-Sim uArch: Shader 23 bind to kernel 1 '_Z15spmv_csr_scalariPKmPKiPKfS4_Pf'
GPGPU-Sim uArch: Shader 24 bind to kernel 1 '_Z15spmv_csr_scalariPKmPKiPKfS4_Pf'
GPGPU-Sim uArch: Shader 25 bind to kernel 1 '_Z15spmv_csr_scalariPKmPKiPKfS4_Pf'
GPGPU-Sim uArch: Shader 26 bind to kernel 1 '_Z15spmv_csr_scalariPKmPKiPKfS4_Pf'
GPGPU-Sim uArch: Shader 27 bind to kernel 1 '_Z15spmv_csr_scalariPKmPKiPKfS4_Pf'
GPGPU-Sim uArch: Shader 28 bind to kernel 1 '_Z15spmv_csr_scalariPKmPKiPKfS4_Pf'
GPGPU-Sim uArch: Shader 29 bind to kernel 1 '_Z15spmv_csr_scalariPKmPKiPKfS4_Pf'
Simulation cycle for kernel 0 is = 10000
Simulation cycle for kernel 0 is = 15000
Simulation cycle for kernel 0 is = 20000
Simulation cycle for kernel 0 is = 25000
Simulation cycle for kernel 0 is = 30000
Simulation cycle for kernel 0 is = 35000
Simulation cycle for kernel 0 is = 40000
Simulation cycle for kernel 0 is = 45000
Simulation cycle for kernel 0 is = 50000
Simulation cycle for kernel 0 is = 55000
Simulation cycle for kernel 0 is = 60000
Simulation cycle for kernel 0 is = 65000
Simulation cycle for kernel 0 is = 70000
Simulation cycle for kernel 0 is = 75000
Simulation cycle for kernel 0 is = 80000
Simulation cycle for kernel 0 is = 85000
Simulation cycle for kernel 0 is = 90000
Simulation cycle for kernel 0 is = 95000
Simulation cycle for kernel 0 is = 100000
Simulation cycle for kernel 0 is = 105000
Simulation cycle for kernel 0 is = 110000
Simulation cycle for kernel 0 is = 115000
Simulation cycle for kernel 0 is = 120000
Simulation cycle for kernel 0 is = 125000
Simulation cycle for kernel 0 is = 130000
Simulation cycle for kernel 0 is = 135000
Simulation cycle for kernel 0 is = 140000
Simulation cycle for kernel 0 is = 145000
Simulation cycle for kernel 0 is = 150000
Simulation cycle for kernel 0 is = 155000
Simulation cycle for kernel 0 is = 160000
Simulation cycle for kernel 0 is = 165000
Simulation cycle for kernel 0 is = 170000
Simulation cycle for kernel 0 is = 175000
Simulation cycle for kernel 0 is = 180000
Simulation cycle for kernel 0 is = 185000
Simulation cycle for kernel 0 is = 190000
Simulation cycle for kernel 0 is = 195000
Simulation cycle for kernel 0 is = 200000
Simulation cycle for kernel 0 is = 205000
Simulation cycle for kernel 0 is = 210000
Simulation cycle for kernel 0 is = 215000
Simulation cycle for kernel 0 is = 220000
Simulation cycle for kernel 0 is = 225000
Simulation cycle for kernel 0 is = 230000
Simulation cycle for kernel 0 is = 235000
Simulation cycle for kernel 0 is = 240000
Simulation cycle for kernel 0 is = 245000
Simulation cycle for kernel 0 is = 250000
Simulation cycle for kernel 0 is = 255000
Simulation cycle for kernel 0 is = 260000
Simulation cycle for kernel 0 is = 265000
Simulation cycle for kernel 0 is = 270000
Simulation cycle for kernel 0 is = 275000
Simulation cycle for kernel 0 is = 280000
Simulation cycle for kernel 0 is = 285000
Simulation cycle for kernel 0 is = 290000
Simulation cycle for kernel 0 is = 295000
Simulation cycle for kernel 0 is = 300000
Simulation cycle for kernel 0 is = 305000
Simulation cycle for kernel 0 is = 310000
Simulation cycle for kernel 0 is = 315000
Simulation cycle for kernel 0 is = 320000
Simulation cycle for kernel 0 is = 325000
Simulation cycle for kernel 0 is = 330000
Simulation cycle for kernel 0 is = 335000
Simulation cycle for kernel 0 is = 340000
Simulation cycle for kernel 0 is = 345000
Simulation cycle for kernel 0 is = 350000
Simulation cycle for kernel 0 is = 355000
Simulation cycle for kernel 0 is = 360000
Simulation cycle for kernel 0 is = 365000
Simulation cycle for kernel 0 is = 370000
Simulation cycle for kernel 0 is = 375000
Simulation cycle for kernel 0 is = 380000
Simulation cycle for kernel 0 is = 385000
Simulation cycle for kernel 0 is = 390000
Simulation cycle for kernel 0 is = 395000
Simulation cycle for kernel 0 is = 400000
Simulation cycle for kernel 0 is = 405000
Simulation cycle for kernel 0 is = 410000
Simulation cycle for kernel 0 is = 415000
Simulation cycle for kernel 0 is = 420000
Simulation cycle for kernel 0 is = 425000
Simulation cycle for kernel 0 is = 430000
Simulation cycle for kernel 0 is = 435000
Simulation cycle for kernel 0 is = 440000
Simulation cycle for kernel 0 is = 445000
Simulation cycle for kernel 0 is = 450000
Simulation cycle for kernel 0 is = 455000
Simulation cycle for kernel 0 is = 460000
Simulation cycle for kernel 0 is = 465000
Simulation cycle for kernel 0 is = 470000
Simulation cycle for kernel 0 is = 475000
Simulation cycle for kernel 0 is = 480000
Simulation cycle for kernel 0 is = 485000
Simulation cycle for kernel 0 is = 490000
Simulation cycle for kernel 0 is = 495000
Simulation cycle for kernel 0 is = 500000
Simulation cycle for kernel 0 is = 505000
Simulation cycle for kernel 0 is = 510000
Simulation cycle for kernel 0 is = 515000
Simulation cycle for kernel 0 is = 520000
Simulation cycle for kernel 0 is = 525000
Simulation cycle for kernel 0 is = 530000
Simulation cycle for kernel 0 is = 535000
Simulation cycle for kernel 0 is = 540000
Simulation cycle for kernel 0 is = 545000
Simulation cycle for kernel 0 is = 550000
Simulation cycle for kernel 0 is = 555000
Simulation cycle for kernel 0 is = 560000
Simulation cycle for kernel 0 is = 565000
Simulation cycle for kernel 0 is = 570000
Simulation cycle for kernel 0 is = 575000
Simulation cycle for kernel 0 is = 580000
Simulation cycle for kernel 0 is = 585000
Simulation cycle for kernel 0 is = 590000
Simulation cycle for kernel 0 is = 595000
Simulation cycle for kernel 0 is = 600000
Simulation cycle for kernel 0 is = 605000
Simulation cycle for kernel 0 is = 610000
Simulation cycle for kernel 0 is = 615000
Simulation cycle for kernel 0 is = 620000
Simulation cycle for kernel 0 is = 625000
Simulation cycle for kernel 0 is = 630000
Simulation cycle for kernel 0 is = 635000
Simulation cycle for kernel 0 is = 640000
Simulation cycle for kernel 0 is = 645000
Simulation cycle for kernel 0 is = 650000
Simulation cycle for kernel 0 is = 655000
Simulation cycle for kernel 0 is = 660000
Simulation cycle for kernel 0 is = 665000
Simulation cycle for kernel 0 is = 670000
Simulation cycle for kernel 0 is = 675000
Simulation cycle for kernel 0 is = 680000
Simulation cycle for kernel 0 is = 685000
Simulation cycle for kernel 0 is = 690000
Simulation cycle for kernel 0 is = 695000
Simulation cycle for kernel 0 is = 700000
Simulation cycle for kernel 0 is = 705000
Simulation cycle for kernel 0 is = 710000
Simulation cycle for kernel 0 is = 715000
Simulation cycle for kernel 0 is = 720000
Simulation cycle for kernel 0 is = 725000
Simulation cycle for kernel 0 is = 730000
Simulation cycle for kernel 0 is = 735000
Simulation cycle for kernel 0 is = 740000
Simulation cycle for kernel 0 is = 745000
Simulation cycle for kernel 0 is = 750000
Simulation cycle for kernel 0 is = 755000
Simulation cycle for kernel 0 is = 760000
Simulation cycle for kernel 0 is = 765000
Simulation cycle for kernel 0 is = 770000
Simulation cycle for kernel 0 is = 775000
Simulation cycle for kernel 0 is = 780000
Simulation cycle for kernel 0 is = 785000
Simulation cycle for kernel 0 is = 790000
Simulation cycle for kernel 0 is = 795000
Simulation cycle for kernel 0 is = 800000
Simulation cycle for kernel 0 is = 805000
Simulation cycle for kernel 0 is = 810000
Simulation cycle for kernel 0 is = 815000
Simulation cycle for kernel 0 is = 820000
Simulation cycle for kernel 0 is = 825000
Simulation cycle for kernel 0 is = 830000
Simulation cycle for kernel 0 is = 835000
Simulation cycle for kernel 0 is = 840000
Simulation cycle for kernel 0 is = 845000
Simulation cycle for kernel 0 is = 850000
Simulation cycle for kernel 0 is = 855000
Simulation cycle for kernel 0 is = 860000
Simulation cycle for kernel 0 is = 865000
Simulation cycle for kernel 0 is = 870000
Simulation cycle for kernel 0 is = 875000
Simulation cycle for kernel 0 is = 880000
Simulation cycle for kernel 0 is = 885000
Simulation cycle for kernel 0 is = 890000
Simulation cycle for kernel 0 is = 895000
Simulation cycle for kernel 0 is = 900000
Simulation cycle for kernel 0 is = 905000
Simulation cycle for kernel 0 is = 910000
Simulation cycle for kernel 0 is = 915000
Simulation cycle for kernel 0 is = 920000
Simulation cycle for kernel 0 is = 925000
Simulation cycle for kernel 0 is = 930000
Simulation cycle for kernel 0 is = 935000
Simulation cycle for kernel 0 is = 940000
Simulation cycle for kernel 0 is = 945000
Simulation cycle for kernel 0 is = 950000
Simulation cycle for kernel 0 is = 955000
Simulation cycle for kernel 0 is = 960000
Simulation cycle for kernel 0 is = 965000
Simulation cycle for kernel 0 is = 970000
Simulation cycle for kernel 0 is = 975000
Simulation cycle for kernel 0 is = 980000
Simulation cycle for kernel 0 is = 985000
Simulation cycle for kernel 0 is = 990000
Simulation cycle for kernel 0 is = 995000
Simulation cycle for kernel 0 is = 1000000
Simulation cycle for kernel 0 is = 1005000
Simulation cycle for kernel 0 is = 1010000
Simulation cycle for kernel 0 is = 1015000
Simulation cycle for kernel 0 is = 1020000
Simulation cycle for kernel 0 is = 1025000
Simulation cycle for kernel 0 is = 1030000
Simulation cycle for kernel 0 is = 1035000
Simulation cycle for kernel 0 is = 1040000
Simulation cycle for kernel 0 is = 1045000
Simulation cycle for kernel 0 is = 1050000
Simulation cycle for kernel 0 is = 1055000
Simulation cycle for kernel 0 is = 1060000
Simulation cycle for kernel 0 is = 1065000
Simulation cycle for kernel 0 is = 1070000
Simulation cycle for kernel 0 is = 1075000
Simulation cycle for kernel 0 is = 1080000
Simulation cycle for kernel 0 is = 1085000
Simulation cycle for kernel 0 is = 1090000
Simulation cycle for kernel 0 is = 1095000
Simulation cycle for kernel 0 is = 1100000
Simulation cycle for kernel 0 is = 1105000
Simulation cycle for kernel 0 is = 1110000
Simulation cycle for kernel 0 is = 1115000
Simulation cycle for kernel 0 is = 1120000
Simulation cycle for kernel 0 is = 1125000
Simulation cycle for kernel 0 is = 1130000
Simulation cycle for kernel 0 is = 1135000
Simulation cycle for kernel 0 is = 1140000
Simulation cycle for kernel 0 is = 1145000
Simulation cycle for kernel 0 is = 1150000
Simulation cycle for kernel 0 is = 1155000
Simulation cycle for kernel 0 is = 1160000
Simulation cycle for kernel 0 is = 1165000
Simulation cycle for kernel 0 is = 1170000
Simulation cycle for kernel 0 is = 1175000
Simulation cycle for kernel 0 is = 1180000
Simulation cycle for kernel 0 is = 1185000
Simulation cycle for kernel 0 is = 1190000
Simulation cycle for kernel 0 is = 1195000
Simulation cycle for kernel 0 is = 1200000
Simulation cycle for kernel 0 is = 1205000
Simulation cycle for kernel 0 is = 1210000
Simulation cycle for kernel 0 is = 1215000
Simulation cycle for kernel 0 is = 1220000
Simulation cycle for kernel 0 is = 1225000
Simulation cycle for kernel 0 is = 1230000
Simulation cycle for kernel 0 is = 1235000
Simulation cycle for kernel 0 is = 1240000
Simulation cycle for kernel 0 is = 1245000
Simulation cycle for kernel 0 is = 1250000
Simulation cycle for kernel 0 is = 1255000
Simulation cycle for kernel 0 is = 1260000
Simulation cycle for kernel 0 is = 1265000
Simulation cycle for kernel 0 is = 1270000
Simulation cycle for kernel 0 is = 1275000
Simulation cycle for kernel 0 is = 1280000
Simulation cycle for kernel 0 is = 1285000
Simulation cycle for kernel 0 is = 1290000
Simulation cycle for kernel 0 is = 1295000
Simulation cycle for kernel 0 is = 1300000
Simulation cycle for kernel 0 is = 1305000
Simulation cycle for kernel 0 is = 1310000
Simulation cycle for kernel 0 is = 1315000
Simulation cycle for kernel 0 is = 1320000
Simulation cycle for kernel 0 is = 1325000
Simulation cycle for kernel 0 is = 1330000
Simulation cycle for kernel 0 is = 1335000
Simulation cycle for kernel 0 is = 1340000
Simulation cycle for kernel 0 is = 1345000
Simulation cycle for kernel 0 is = 1350000
Simulation cycle for kernel 0 is = 1355000
Simulation cycle for kernel 0 is = 1360000
Simulation cycle for kernel 0 is = 1365000
Simulation cycle for kernel 0 is = 1370000
Simulation cycle for kernel 0 is = 1375000
Simulation cycle for kernel 0 is = 1380000
Simulation cycle for kernel 0 is = 1385000
Simulation cycle for kernel 0 is = 1390000
Simulation cycle for kernel 0 is = 1395000
Simulation cycle for kernel 0 is = 1400000
Simulation cycle for kernel 0 is = 1405000
Simulation cycle for kernel 0 is = 1410000
Simulation cycle for kernel 0 is = 1415000
Simulation cycle for kernel 0 is = 1420000
Simulation cycle for kernel 0 is = 1425000
Simulation cycle for kernel 0 is = 1430000
Simulation cycle for kernel 0 is = 1435000
Simulation cycle for kernel 0 is = 1440000
Simulation cycle for kernel 0 is = 1445000
Simulation cycle for kernel 0 is = 1450000
Simulation cycle for kernel 0 is = 1455000
Simulation cycle for kernel 0 is = 1460000
Simulation cycle for kernel 0 is = 1465000
Simulation cycle for kernel 0 is = 1470000
Simulation cycle for kernel 0 is = 1475000
Simulation cycle for kernel 0 is = 1480000
Simulation cycle for kernel 0 is = 1485000
Simulation cycle for kernel 0 is = 1490000
Simulation cycle for kernel 0 is = 1495000
Simulation cycle for kernel 0 is = 1500000
Simulation cycle for kernel 0 is = 1505000
Simulation cycle for kernel 0 is = 1510000
Simulation cycle for kernel 0 is = 1515000
Simulation cycle for kernel 0 is = 1520000
Simulation cycle for kernel 0 is = 1525000
Simulation cycle for kernel 0 is = 1530000
Simulation cycle for kernel 0 is = 1535000
Simulation cycle for kernel 0 is = 1540000
Simulation cycle for kernel 0 is = 1545000
Simulation cycle for kernel 0 is = 1550000
Simulation cycle for kernel 0 is = 1555000
Simulation cycle for kernel 0 is = 1560000
Simulation cycle for kernel 0 is = 1565000
Simulation cycle for kernel 0 is = 1570000
Simulation cycle for kernel 0 is = 1575000
Simulation cycle for kernel 0 is = 1580000
Simulation cycle for kernel 0 is = 1585000
Simulation cycle for kernel 0 is = 1590000
Simulation cycle for kernel 0 is = 1595000
Simulation cycle for kernel 0 is = 1600000
Simulation cycle for kernel 0 is = 1605000
Simulation cycle for kernel 0 is = 1610000
Simulation cycle for kernel 0 is = 1615000
Simulation cycle for kernel 0 is = 1620000
Simulation cycle for kernel 0 is = 1625000
Simulation cycle for kernel 0 is = 1630000
Simulation cycle for kernel 0 is = 1635000
Simulation cycle for kernel 0 is = 1640000
Simulation cycle for kernel 0 is = 1645000
Simulation cycle for kernel 0 is = 1650000
Simulation cycle for kernel 0 is = 1655000
Simulation cycle for kernel 0 is = 1660000
Simulation cycle for kernel 0 is = 1665000
Simulation cycle for kernel 0 is = 1670000
Simulation cycle for kernel 0 is = 1675000
Simulation cycle for kernel 0 is = 1680000
Simulation cycle for kernel 0 is = 1685000
Simulation cycle for kernel 0 is = 1690000
Simulation cycle for kernel 0 is = 1695000
Simulation cycle for kernel 0 is = 1700000
Simulation cycle for kernel 0 is = 1705000
Simulation cycle for kernel 0 is = 1710000
Simulation cycle for kernel 0 is = 1715000
Simulation cycle for kernel 0 is = 1720000
Simulation cycle for kernel 0 is = 1725000
Simulation cycle for kernel 0 is = 1730000
Simulation cycle for kernel 0 is = 1735000
Simulation cycle for kernel 0 is = 1740000
Simulation cycle for kernel 0 is = 1745000
Simulation cycle for kernel 0 is = 1750000
Simulation cycle for kernel 0 is = 1755000
Simulation cycle for kernel 0 is = 1760000
Simulation cycle for kernel 0 is = 1765000
Simulation cycle for kernel 0 is = 1770000
Simulation cycle for kernel 0 is = 1775000
Simulation cycle for kernel 0 is = 1780000
Simulation cycle for kernel 0 is = 1785000
Simulation cycle for kernel 0 is = 1790000
Simulation cycle for kernel 0 is = 1795000
Simulation cycle for kernel 0 is = 1800000
Simulation cycle for kernel 0 is = 1805000
Simulation cycle for kernel 0 is = 1810000
Simulation cycle for kernel 0 is = 1815000
Simulation cycle for kernel 0 is = 1820000
Simulation cycle for kernel 0 is = 1825000
Simulation cycle for kernel 0 is = 1830000
Simulation cycle for kernel 0 is = 1835000
Simulation cycle for kernel 0 is = 1840000
Simulation cycle for kernel 0 is = 1845000
Simulation cycle for kernel 0 is = 1850000
Simulation cycle for kernel 0 is = 1855000
Simulation cycle for kernel 0 is = 1860000
Simulation cycle for kernel 0 is = 1865000
Simulation cycle for kernel 0 is = 1870000
Simulation cycle for kernel 0 is = 1875000
Simulation cycle for kernel 0 is = 1880000
Simulation cycle for kernel 0 is = 1885000
Simulation cycle for kernel 0 is = 1890000
Simulation cycle for kernel 0 is = 1895000
Simulation cycle for kernel 0 is = 1900000
Simulation cycle for kernel 0 is = 1905000
Simulation cycle for kernel 0 is = 1910000
Simulation cycle for kernel 0 is = 1915000
Simulation cycle for kernel 0 is = 1920000
Simulation cycle for kernel 0 is = 1925000
Simulation cycle for kernel 0 is = 1930000
Simulation cycle for kernel 0 is = 1935000
Simulation cycle for kernel 0 is = 1940000
Simulation cycle for kernel 0 is = 1945000
Simulation cycle for kernel 0 is = 1950000
Simulation cycle for kernel 0 is = 1955000
Simulation cycle for kernel 0 is = 1960000
Simulation cycle for kernel 0 is = 1965000
Simulation cycle for kernel 0 is = 1970000
Simulation cycle for kernel 0 is = 1975000
Simulation cycle for kernel 0 is = 1980000
Simulation cycle for kernel 0 is = 1985000
Simulation cycle for kernel 0 is = 1990000
Simulation cycle for kernel 0 is = 1995000
Simulation cycle for kernel 0 is = 2000000
Simulation cycle for kernel 0 is = 2005000
Simulation cycle for kernel 0 is = 2010000
Simulation cycle for kernel 0 is = 2015000
Simulation cycle for kernel 0 is = 2020000
Simulation cycle for kernel 0 is = 2025000
Simulation cycle for kernel 0 is = 2030000
Simulation cycle for kernel 0 is = 2035000
Simulation cycle for kernel 0 is = 2040000
Simulation cycle for kernel 0 is = 2045000
Simulation cycle for kernel 0 is = 2050000
Simulation cycle for kernel 0 is = 2055000
Simulation cycle for kernel 0 is = 2060000
Simulation cycle for kernel 0 is = 2065000
Simulation cycle for kernel 0 is = 2070000
Simulation cycle for kernel 0 is = 2075000
Simulation cycle for kernel 0 is = 2080000
Simulation cycle for kernel 0 is = 2085000
Simulation cycle for kernel 0 is = 2090000
Simulation cycle for kernel 0 is = 2095000
Simulation cycle for kernel 0 is = 2100000
Simulation cycle for kernel 0 is = 2105000
Simulation cycle for kernel 0 is = 2110000
Simulation cycle for kernel 0 is = 2115000
Simulation cycle for kernel 0 is = 2120000
Simulation cycle for kernel 0 is = 2125000
Simulation cycle for kernel 0 is = 2130000
Simulation cycle for kernel 0 is = 2135000
Simulation cycle for kernel 0 is = 2140000
Simulation cycle for kernel 0 is = 2145000
Simulation cycle for kernel 0 is = 2150000
Simulation cycle for kernel 0 is = 2155000
Simulation cycle for kernel 0 is = 2160000
Simulation cycle for kernel 0 is = 2165000
Simulation cycle for kernel 0 is = 2170000
Simulation cycle for kernel 0 is = 2175000
Simulation cycle for kernel 0 is = 2180000
Simulation cycle for kernel 0 is = 2185000
Simulation cycle for kernel 0 is = 2190000
Simulation cycle for kernel 0 is = 2195000
Simulation cycle for kernel 0 is = 2200000
Simulation cycle for kernel 0 is = 2205000
Simulation cycle for kernel 0 is = 2210000
Simulation cycle for kernel 0 is = 2215000
Simulation cycle for kernel 0 is = 2220000
Simulation cycle for kernel 0 is = 2225000
Simulation cycle for kernel 0 is = 2230000
Simulation cycle for kernel 0 is = 2235000
Simulation cycle for kernel 0 is = 2240000
Simulation cycle for kernel 0 is = 2245000
Simulation cycle for kernel 0 is = 2250000
Simulation cycle for kernel 0 is = 2255000
Simulation cycle for kernel 0 is = 2260000
Simulation cycle for kernel 0 is = 2265000
Simulation cycle for kernel 0 is = 2270000
Simulation cycle for kernel 0 is = 2275000
Simulation cycle for kernel 0 is = 2280000
Simulation cycle for kernel 0 is = 2285000
Simulation cycle for kernel 0 is = 2290000
Simulation cycle for kernel 0 is = 2295000
Simulation cycle for kernel 0 is = 2300000
Simulation cycle for kernel 0 is = 2305000
Simulation cycle for kernel 0 is = 2310000
Simulation cycle for kernel 0 is = 2315000
Simulation cycle for kernel 0 is = 2320000
Simulation cycle for kernel 0 is = 2325000
Simulation cycle for kernel 0 is = 2330000
Simulation cycle for kernel 0 is = 2335000
Simulation cycle for kernel 0 is = 2340000
Simulation cycle for kernel 0 is = 2345000
Simulation cycle for kernel 0 is = 2350000
Simulation cycle for kernel 0 is = 2355000
Simulation cycle for kernel 0 is = 2360000
Simulation cycle for kernel 0 is = 2365000
Simulation cycle for kernel 0 is = 2370000
Simulation cycle for kernel 0 is = 2375000
Simulation cycle for kernel 0 is = 2380000
Simulation cycle for kernel 0 is = 2385000
Simulation cycle for kernel 0 is = 2390000
Simulation cycle for kernel 0 is = 2395000
Simulation cycle for kernel 0 is = 2400000
Simulation cycle for kernel 0 is = 2405000
Simulation cycle for kernel 0 is = 2410000
Simulation cycle for kernel 0 is = 2415000
Simulation cycle for kernel 0 is = 2420000
Simulation cycle for kernel 0 is = 2425000
Simulation cycle for kernel 0 is = 2430000
Simulation cycle for kernel 0 is = 2435000
Simulation cycle for kernel 0 is = 2440000
Simulation cycle for kernel 0 is = 2445000
Simulation cycle for kernel 0 is = 2450000
Simulation cycle for kernel 0 is = 2455000
Simulation cycle for kernel 0 is = 2460000
Simulation cycle for kernel 0 is = 2465000
Simulation cycle for kernel 0 is = 2470000
Simulation cycle for kernel 0 is = 2475000
Simulation cycle for kernel 0 is = 2480000
Simulation cycle for kernel 0 is = 2485000
Simulation cycle for kernel 0 is = 2490000
Simulation cycle for kernel 0 is = 2495000
Simulation cycle for kernel 0 is = 2500000
Simulation cycle for kernel 0 is = 2505000
Simulation cycle for kernel 0 is = 2510000
Simulation cycle for kernel 0 is = 2515000
Simulation cycle for kernel 0 is = 2520000
Simulation cycle for kernel 0 is = 2525000
Simulation cycle for kernel 0 is = 2530000
Simulation cycle for kernel 0 is = 2535000
Simulation cycle for kernel 0 is = 2540000
Simulation cycle for kernel 0 is = 2545000
Simulation cycle for kernel 0 is = 2550000
Simulation cycle for kernel 0 is = 2555000
Simulation cycle for kernel 0 is = 2560000
Simulation cycle for kernel 0 is = 2565000
Simulation cycle for kernel 0 is = 2570000
Simulation cycle for kernel 0 is = 2575000
Simulation cycle for kernel 0 is = 2580000
Simulation cycle for kernel 0 is = 2585000
Simulation cycle for kernel 0 is = 2590000
Simulation cycle for kernel 0 is = 2595000
Simulation cycle for kernel 0 is = 2600000
Simulation cycle for kernel 0 is = 2605000
Simulation cycle for kernel 0 is = 2610000
Simulation cycle for kernel 0 is = 2615000
Simulation cycle for kernel 0 is = 2620000
Simulation cycle for kernel 0 is = 2625000
Simulation cycle for kernel 0 is = 2630000
Simulation cycle for kernel 0 is = 2635000
Simulation cycle for kernel 0 is = 2640000
Simulation cycle for kernel 0 is = 2645000
Simulation cycle for kernel 0 is = 2650000
Simulation cycle for kernel 0 is = 2655000
Simulation cycle for kernel 0 is = 2660000
Simulation cycle for kernel 0 is = 2665000
Simulation cycle for kernel 0 is = 2670000
Simulation cycle for kernel 0 is = 2675000
Simulation cycle for kernel 0 is = 2680000
Simulation cycle for kernel 0 is = 2685000
Simulation cycle for kernel 0 is = 2690000
Simulation cycle for kernel 0 is = 2695000
Simulation cycle for kernel 0 is = 2700000
Simulation cycle for kernel 0 is = 2705000
Simulation cycle for kernel 0 is = 2710000
Simulation cycle for kernel 0 is = 2715000
Simulation cycle for kernel 0 is = 2720000
Simulation cycle for kernel 0 is = 2725000
Simulation cycle for kernel 0 is = 2730000
Simulation cycle for kernel 0 is = 2735000
Simulation cycle for kernel 0 is = 2740000
Simulation cycle for kernel 0 is = 2745000
Simulation cycle for kernel 0 is = 2750000
Simulation cycle for kernel 0 is = 2755000
Simulation cycle for kernel 0 is = 2760000
Simulation cycle for kernel 0 is = 2765000
Simulation cycle for kernel 0 is = 2770000
Simulation cycle for kernel 0 is = 2775000
Simulation cycle for kernel 0 is = 2780000
Simulation cycle for kernel 0 is = 2785000
Simulation cycle for kernel 0 is = 2790000
Simulation cycle for kernel 0 is = 2795000
Simulation cycle for kernel 0 is = 2800000
Simulation cycle for kernel 0 is = 2805000
Simulation cycle for kernel 0 is = 2810000
Simulation cycle for kernel 0 is = 2815000
Simulation cycle for kernel 0 is = 2820000
Simulation cycle for kernel 0 is = 2825000
Simulation cycle for kernel 0 is = 2830000
Simulation cycle for kernel 0 is = 2835000
Simulation cycle for kernel 0 is = 2840000
Simulation cycle for kernel 0 is = 2845000
Simulation cycle for kernel 0 is = 2850000
Simulation cycle for kernel 0 is = 2855000
Simulation cycle for kernel 0 is = 2860000
Simulation cycle for kernel 0 is = 2865000
Simulation cycle for kernel 0 is = 2870000
Simulation cycle for kernel 0 is = 2875000
Simulation cycle for kernel 0 is = 2880000
Simulation cycle for kernel 0 is = 2885000
Simulation cycle for kernel 0 is = 2890000
Simulation cycle for kernel 0 is = 2895000
Simulation cycle for kernel 0 is = 2900000
Simulation cycle for kernel 0 is = 2905000
Simulation cycle for kernel 0 is = 2910000
Simulation cycle for kernel 0 is = 2915000
Simulation cycle for kernel 0 is = 2920000
Simulation cycle for kernel 0 is = 2925000
Simulation cycle for kernel 0 is = 2930000
Simulation cycle for kernel 0 is = 2935000
Simulation cycle for kernel 0 is = 2940000
Simulation cycle for kernel 0 is = 2945000
Simulation cycle for kernel 0 is = 2950000
Simulation cycle for kernel 0 is = 2955000
Simulation cycle for kernel 0 is = 2960000
Simulation cycle for kernel 0 is = 2965000
Simulation cycle for kernel 0 is = 2970000
Simulation cycle for kernel 0 is = 2975000
Simulation cycle for kernel 0 is = 2980000
Simulation cycle for kernel 0 is = 2985000
Simulation cycle for kernel 0 is = 2990000
Simulation cycle for kernel 0 is = 2995000
Simulation cycle for kernel 0 is = 3000000
Simulation cycle for kernel 0 is = 3005000
Simulation cycle for kernel 0 is = 3010000
Simulation cycle for kernel 0 is = 3015000
Simulation cycle for kernel 0 is = 3020000
Simulation cycle for kernel 0 is = 3025000
Simulation cycle for kernel 0 is = 3030000
Simulation cycle for kernel 0 is = 3035000
Simulation cycle for kernel 0 is = 3040000
Simulation cycle for kernel 0 is = 3045000
Simulation cycle for kernel 0 is = 3050000
Simulation cycle for kernel 0 is = 3055000
Simulation cycle for kernel 0 is = 3060000
Simulation cycle for kernel 0 is = 3065000
Simulation cycle for kernel 0 is = 3070000
Simulation cycle for kernel 0 is = 3075000
Simulation cycle for kernel 0 is = 3080000
Simulation cycle for kernel 0 is = 3085000
Simulation cycle for kernel 0 is = 3090000
Simulation cycle for kernel 0 is = 3095000
Simulation cycle for kernel 0 is = 3100000
Simulation cycle for kernel 0 is = 3105000
Simulation cycle for kernel 0 is = 3110000
Simulation cycle for kernel 0 is = 3115000
Simulation cycle for kernel 0 is = 3120000
Simulation cycle for kernel 0 is = 3125000
Simulation cycle for kernel 0 is = 3130000
Simulation cycle for kernel 0 is = 3135000
Simulation cycle for kernel 0 is = 3140000
Simulation cycle for kernel 0 is = 3145000
Simulation cycle for kernel 0 is = 3150000
Simulation cycle for kernel 0 is = 3155000
Simulation cycle for kernel 0 is = 3160000
Simulation cycle for kernel 0 is = 3165000
Simulation cycle for kernel 0 is = 3170000
Simulation cycle for kernel 0 is = 3175000
Simulation cycle for kernel 0 is = 3180000
Simulation cycle for kernel 0 is = 3185000
Simulation cycle for kernel 0 is = 3190000
Simulation cycle for kernel 0 is = 3195000
Simulation cycle for kernel 0 is = 3200000
Simulation cycle for kernel 0 is = 3205000
Simulation cycle for kernel 0 is = 3210000
Simulation cycle for kernel 0 is = 3215000
Simulation cycle for kernel 0 is = 3220000
Simulation cycle for kernel 0 is = 3225000
Simulation cycle for kernel 0 is = 3230000
Simulation cycle for kernel 0 is = 3235000
Simulation cycle for kernel 0 is = 3240000
Simulation cycle for kernel 0 is = 3245000
Simulation cycle for kernel 0 is = 3250000
Simulation cycle for kernel 0 is = 3255000
Simulation cycle for kernel 0 is = 3260000
Simulation cycle for kernel 0 is = 3265000
Simulation cycle for kernel 0 is = 3270000
Simulation cycle for kernel 0 is = 3275000
Simulation cycle for kernel 0 is = 3280000
Simulation cycle for kernel 0 is = 3285000
Simulation cycle for kernel 0 is = 3290000
Simulation cycle for kernel 0 is = 3295000
Simulation cycle for kernel 0 is = 3300000
Simulation cycle for kernel 0 is = 3305000
Simulation cycle for kernel 0 is = 3310000
Simulation cycle for kernel 0 is = 3315000
Simulation cycle for kernel 0 is = 3320000
Simulation cycle for kernel 0 is = 3325000
Simulation cycle for kernel 0 is = 3330000
Simulation cycle for kernel 0 is = 3335000
Simulation cycle for kernel 0 is = 3340000
Simulation cycle for kernel 0 is = 3345000
Simulation cycle for kernel 0 is = 3350000
Simulation cycle for kernel 0 is = 3355000
Simulation cycle for kernel 0 is = 3360000
Simulation cycle for kernel 0 is = 3365000
Simulation cycle for kernel 0 is = 3370000
Simulation cycle for kernel 0 is = 3375000
Simulation cycle for kernel 0 is = 3380000
Simulation cycle for kernel 0 is = 3385000
Simulation cycle for kernel 0 is = 3390000
Simulation cycle for kernel 0 is = 3395000
Simulation cycle for kernel 0 is = 3400000
Simulation cycle for kernel 0 is = 3405000
Simulation cycle for kernel 0 is = 3410000
Simulation cycle for kernel 0 is = 3415000
Simulation cycle for kernel 0 is = 3420000
Simulation cycle for kernel 0 is = 3425000
Simulation cycle for kernel 0 is = 3430000
Simulation cycle for kernel 0 is = 3435000
Simulation cycle for kernel 0 is = 3440000
Simulation cycle for kernel 0 is = 3445000
Simulation cycle for kernel 0 is = 3450000
Simulation cycle for kernel 0 is = 3455000
Simulation cycle for kernel 0 is = 3460000
Simulation cycle for kernel 0 is = 3465000
Simulation cycle for kernel 0 is = 3470000
Simulation cycle for kernel 0 is = 3475000
Simulation cycle for kernel 0 is = 3480000
Simulation cycle for kernel 0 is = 3485000
Simulation cycle for kernel 0 is = 3490000
Simulation cycle for kernel 0 is = 3495000
Simulation cycle for kernel 0 is = 3500000
Simulation cycle for kernel 0 is = 3505000
Simulation cycle for kernel 0 is = 3510000
Simulation cycle for kernel 0 is = 3515000
Simulation cycle for kernel 0 is = 3520000
Simulation cycle for kernel 0 is = 3525000
Simulation cycle for kernel 0 is = 3530000
Simulation cycle for kernel 0 is = 3535000
Simulation cycle for kernel 0 is = 3540000
Simulation cycle for kernel 0 is = 3545000
Simulation cycle for kernel 0 is = 3550000
Simulation cycle for kernel 0 is = 3555000
Simulation cycle for kernel 0 is = 3560000
Simulation cycle for kernel 0 is = 3565000
Simulation cycle for kernel 0 is = 3570000
Simulation cycle for kernel 0 is = 3575000
Simulation cycle for kernel 0 is = 3580000
Simulation cycle for kernel 0 is = 3585000
Simulation cycle for kernel 0 is = 3590000
Simulation cycle for kernel 0 is = 3595000
Simulation cycle for kernel 0 is = 3600000
Simulation cycle for kernel 0 is = 3605000
Simulation cycle for kernel 0 is = 3610000
Simulation cycle for kernel 0 is = 3615000
Simulation cycle for kernel 0 is = 3620000
Simulation cycle for kernel 0 is = 3625000
Simulation cycle for kernel 0 is = 3630000
Simulation cycle for kernel 0 is = 3635000
Simulation cycle for kernel 0 is = 3640000
Simulation cycle for kernel 0 is = 3645000
Simulation cycle for kernel 0 is = 3650000
Simulation cycle for kernel 0 is = 3655000
Simulation cycle for kernel 0 is = 3660000
Simulation cycle for kernel 0 is = 3665000
Simulation cycle for kernel 0 is = 3670000
Simulation cycle for kernel 0 is = 3675000
Simulation cycle for kernel 0 is = 3680000
Simulation cycle for kernel 0 is = 3685000
Simulation cycle for kernel 0 is = 3690000
Simulation cycle for kernel 0 is = 3695000
Simulation cycle for kernel 0 is = 3700000
Simulation cycle for kernel 0 is = 3705000
Simulation cycle for kernel 0 is = 3710000
Simulation cycle for kernel 0 is = 3715000
Simulation cycle for kernel 0 is = 3720000
Simulation cycle for kernel 0 is = 3725000
Simulation cycle for kernel 0 is = 3730000
Simulation cycle for kernel 0 is = 3735000
Simulation cycle for kernel 0 is = 3740000
Simulation cycle for kernel 0 is = 3745000
Simulation cycle for kernel 0 is = 3750000
Simulation cycle for kernel 0 is = 3755000
Simulation cycle for kernel 0 is = 3760000
Simulation cycle for kernel 0 is = 3765000
Simulation cycle for kernel 0 is = 3770000
Simulation cycle for kernel 0 is = 3775000
Simulation cycle for kernel 0 is = 3780000
Simulation cycle for kernel 0 is = 3785000
Simulation cycle for kernel 0 is = 3790000
Simulation cycle for kernel 0 is = 3795000
Simulation cycle for kernel 0 is = 3800000
Simulation cycle for kernel 0 is = 3805000
Simulation cycle for kernel 0 is = 3810000
Simulation cycle for kernel 0 is = 3815000
Simulation cycle for kernel 0 is = 3820000
Simulation cycle for kernel 0 is = 3825000
Simulation cycle for kernel 0 is = 3830000
Simulation cycle for kernel 0 is = 3835000
Simulation cycle for kernel 0 is = 3840000
Simulation cycle for kernel 0 is = 3845000
Simulation cycle for kernel 0 is = 3850000
Simulation cycle for kernel 0 is = 3855000
Simulation cycle for kernel 0 is = 3860000
Simulation cycle for kernel 0 is = 3865000
Simulation cycle for kernel 0 is = 3870000
Simulation cycle for kernel 0 is = 3875000
Simulation cycle for kernel 0 is = 3880000
Simulation cycle for kernel 0 is = 3885000
Simulation cycle for kernel 0 is = 3890000
Simulation cycle for kernel 0 is = 3895000
Simulation cycle for kernel 0 is = 3900000
Simulation cycle for kernel 0 is = 3905000
Simulation cycle for kernel 0 is = 3910000
Simulation cycle for kernel 0 is = 3915000
Simulation cycle for kernel 0 is = 3920000
Simulation cycle for kernel 0 is = 3925000
Simulation cycle for kernel 0 is = 3930000
Simulation cycle for kernel 0 is = 3935000
Simulation cycle for kernel 0 is = 3940000
Simulation cycle for kernel 0 is = 3945000
Simulation cycle for kernel 0 is = 3950000
Simulation cycle for kernel 0 is = 3955000
Simulation cycle for kernel 0 is = 3960000
Simulation cycle for kernel 0 is = 3965000
Simulation cycle for kernel 0 is = 3970000
Simulation cycle for kernel 0 is = 3975000
Simulation cycle for kernel 0 is = 3980000
Simulation cycle for kernel 0 is = 3985000
Simulation cycle for kernel 0 is = 3990000
Simulation cycle for kernel 0 is = 3995000
Simulation cycle for kernel 0 is = 4000000
Simulation cycle for kernel 0 is = 4005000
Simulation cycle for kernel 0 is = 4010000
Simulation cycle for kernel 0 is = 4015000
Simulation cycle for kernel 0 is = 4020000
Simulation cycle for kernel 0 is = 4025000
Simulation cycle for kernel 0 is = 4030000
Simulation cycle for kernel 0 is = 4035000
Simulation cycle for kernel 0 is = 4040000
Simulation cycle for kernel 0 is = 4045000
Simulation cycle for kernel 0 is = 4050000
Simulation cycle for kernel 0 is = 4055000
Simulation cycle for kernel 0 is = 4060000
Simulation cycle for kernel 0 is = 4065000
Simulation cycle for kernel 0 is = 4070000
Simulation cycle for kernel 0 is = 4075000
Simulation cycle for kernel 0 is = 4080000
Simulation cycle for kernel 0 is = 4085000
Simulation cycle for kernel 0 is = 4090000
Simulation cycle for kernel 0 is = 4095000
Simulation cycle for kernel 0 is = 4100000
Simulation cycle for kernel 0 is = 4105000
Simulation cycle for kernel 0 is = 4110000
Simulation cycle for kernel 0 is = 4115000
Simulation cycle for kernel 0 is = 4120000
Simulation cycle for kernel 0 is = 4125000
Simulation cycle for kernel 0 is = 4130000
Simulation cycle for kernel 0 is = 4135000
Simulation cycle for kernel 0 is = 4140000
Simulation cycle for kernel 0 is = 4145000
Simulation cycle for kernel 0 is = 4150000
Simulation cycle for kernel 0 is = 4155000
Simulation cycle for kernel 0 is = 4160000
Simulation cycle for kernel 0 is = 4165000
Simulation cycle for kernel 0 is = 4170000
Simulation cycle for kernel 0 is = 4175000
Simulation cycle for kernel 0 is = 4180000
Simulation cycle for kernel 0 is = 4185000
Simulation cycle for kernel 0 is = 4190000
Simulation cycle for kernel 0 is = 4195000
Simulation cycle for kernel 0 is = 4200000
Simulation cycle for kernel 0 is = 4205000
Simulation cycle for kernel 0 is = 4210000
Simulation cycle for kernel 0 is = 4215000
Simulation cycle for kernel 0 is = 4220000
Simulation cycle for kernel 0 is = 4225000
Simulation cycle for kernel 0 is = 4230000
Simulation cycle for kernel 0 is = 4235000
Simulation cycle for kernel 0 is = 4240000
Simulation cycle for kernel 0 is = 4245000
Simulation cycle for kernel 0 is = 4250000
Simulation cycle for kernel 0 is = 4255000
Simulation cycle for kernel 0 is = 4260000
Simulation cycle for kernel 0 is = 4265000
Simulation cycle for kernel 0 is = 4270000
[...]

Commands details: 
total_CMD = 48210728 
n_nop = 46768001 
Read = 607204 
Write = 0 
L2_Alloc = 0 
L2_WB = 4748 
n_act = 500353 
n_pre = 500337 
n_ref = 7022926448984150560 
n_req = 608391 
total_req = 611952 

Dual Bus Interface Util: 
issued_total_row = 1000690 
issued_total_col = 611952 
Row_Bus_Util =  0.020757 
CoL_Bus_Util = 0.012693 
Either_Row_CoL_Bus_Util = 0.029925 
Issued_on_Two_Bus_Simul_Util = 0.003524 
issued_two_Eff = 0.117773 
queue_avg = 3.280235 


dram_util_bins: 0 0 0 0 0 0 0 0 0 0
dram_eff_bins: 0 0 0 0 0 0 0 0 0 0
mrqq: max=64 avg=3.28023
Memory Partition 7: 
Cache L2_bank_014:
MSHR contents

Cache L2_bank_015:
MSHR contents

In Dram Latency Queue (total = 0): 
DRAM[7]: 16 bks, busW=2 BL=16 CL=24, tRRD=12 tCCD=4, tRCD=24 tRAS=55 tRP=24 tRC=78
n_cmd=48210728 n_nop=46745137 n_act=508124 n_pre=508108 n_ref_event=7022926448984150560 n_req=619490 n_rd=618302 n_rd_L2_A=0 n_write=0 n_wr_bk=4752 bw_util=0.05169
n_activity=12848631 dram_eff=0.194
bk0: 40029a 44732955i bk1: 37754a 44915623i bk2: 40372a 44673333i bk3: 37811a 44889125i bk4: 37790a 44888988i bk5: 36189a 45022706i bk6: 37986a 44820350i bk7: 36319a 44988186i bk8: 39844a 44722947i bk9: 38207a 44822847i bk10: 41434a 44574417i bk11: 39030a 44767774i bk12: 40086a 44678486i bk13: 37948a 44859086i bk14: 40162a 44707486i bk15: 37341a 44952577i 

------------------------------------------------------------------------

Row_Buffer_Locality = 0.179787
Row_Buffer_Locality_read = 0.179938
Row_Buffer_Locality_write = 0.101010
Bank_Level_Parallism = 5.208272
Bank_Level_Parallism_Col = 0.642112
Bank_Level_Parallism_Ready = 1.018238
write_to_read_ratio_blp_rw_average = 0.000000
GrpLevelPara = 0.000000 

BW Util details:
bwutil = 0.051694 
total_CMD = 48210728 
util_bw = 2492216 
Wasted_Col = 6100236 
Wasted_Row = 2145716 
Idle = 37472560 

BW Util Bottlenecks: 
RCDc_limit = 9034985 
RCDWRc_limit = 11337 
WTRc_limit = 38589 
RTWc_limit = 30519 
CCDLc_limit = 429794 
rwq = 0 
CCDLc_limit_alone = 426630 
WTRc_limit_alone = 36713 
RTWc_limit_alone = 29231 

Commands details: 
total_CMD = 48210728 
n_nop = 46745137 
Read = 618302 
Write = 0 
L2_Alloc = 0 
L2_WB = 4752 
n_act = 508124 
n_pre = 508108 
n_ref = 7022926448984150560 
n_req = 619490 
total_req = 623054 

Dual Bus Interface Util: 
issued_total_row = 1016232 
issued_total_col = 623054 
Row_Bus_Util =  0.021079 
CoL_Bus_Util = 0.012924 
Either_Row_CoL_Bus_Util = 0.030400 
Issued_on_Two_Bus_Simul_Util = 0.003603 
issued_two_Eff = 0.118515 
queue_avg = 3.336689 


dram_util_bins: 0 0 0 0 0 0 0 0 0 0
dram_eff_bins: 0 0 0 0 0 0 0 0 0 0
mrqq: max=64 avg=3.33669
Memory Partition 8: 
Cache L2_bank_016:
MSHR contents

Cache L2_bank_017:
MSHR contents

In Dram Latency Queue (total = 0): 
DRAM[8]: 16 bks, busW=2 BL=16 CL=24, tRRD=12 tCCD=4, tRCD=24 tRAS=55 tRP=24 tRC=78
n_cmd=48210728 n_nop=46778796 n_act=496929 n_pre=496913 n_ref_event=7022926448984150560 n_req=603502 n_rd=602314 n_rd_L2_A=0 n_write=0 n_wr_bk=4752 bw_util=0.05037
n_activity=12832372 dram_eff=0.1892
bk0: 37671a 44960954i bk1: 37530a 44961515i bk2: 37576a 44947553i bk3: 37289a 44931277i bk4: 36162a 45029962i bk5: 36352a 45004226i bk6: 35973a 45028994i bk7: 35705a 45039752i bk8: 38317a 44842133i bk9: 38799a 44828908i bk10: 39141a 44766198i bk11: 38767a 44799518i bk12: 38799a 44806711i bk13: 38360a 44849975i bk14: 37825a 44913582i bk15: 38048a 44897513i 

------------------------------------------------------------------------

Row_Buffer_Locality = 0.176608
Row_Buffer_Locality_read = 0.176743
Row_Buffer_Locality_write = 0.107744
Bank_Level_Parallism = 5.072210
Bank_Level_Parallism_Col = 0.642112
Bank_Level_Parallism_Ready = 1.016785
write_to_read_ratio_blp_rw_average = 0.000000
GrpLevelPara = 0.000000 

BW Util details:
bwutil = 0.050368 
total_CMD = 48210728 
util_bw = 2428264 
Wasted_Col = 6074110 
Wasted_Row = 2203547 
Idle = 37504807 

BW Util Bottlenecks: 
RCDc_limit = 8911926 
RCDWRc_limit = 11333 
WTRc_limit = 36708 
RTWc_limit = 26736 
CCDLc_limit = 407844 
rwq = 0 
CCDLc_limit_alone = 404662 
WTRc_limit_alone = 34605 
RTWc_limit_alone = 25657 

Commands details: 
total_CMD = 48210728 
n_nop = 46778796 
Read = 602314 
Write = 0 
L2_Alloc = 0 
L2_WB = 4752 
n_act = 496929 
n_pre = 496913 
n_ref = 7022926448984150560 
n_req = 603502 
total_req = 607066 

Dual Bus Interface Util: 
issued_total_row = 993842 
issued_total_col = 607066 
Row_Bus_Util =  0.020615 
CoL_Bus_Util = 0.012592 
Either_Row_CoL_Bus_Util = 0.029702 
Issued_on_Two_Bus_Simul_Util = 0.003505 
issued_two_Eff = 0.118006 
queue_avg = 3.184713 


dram_util_bins: 0 0 0 0 0 0 0 0 0 0
dram_eff_bins: 0 0 0 0 0 0 0 0 0 0
mrqq: max=64 avg=3.18471
Memory Partition 9: 
Cache L2_bank_018:
MSHR contents

Cache L2_bank_019:
MSHR contents

In Dram Latency Queue (total = 0): 
DRAM[9]: 16 bks, busW=2 BL=16 CL=24, tRRD=12 tCCD=4, tRCD=24 tRAS=55 tRP=24 tRC=78
n_cmd=48210728 n_nop=46775178 n_act=496700 n_pre=496684 n_ref_event=7022926448984150560 n_req=603069 n_rd=601882 n_rd_L2_A=0 n_write=0 n_wr_bk=4748 bw_util=0.05033
n_activity=12845193 dram_eff=0.1889
bk0: 37679a 44957955i bk1: 37464a 44963618i bk2: 37515a 44953141i bk3: 37993a 44937862i bk4: 37324a 44966264i bk5: 37160a 44987554i bk6: 36021a 45092412i bk7: 35643a 45177059i bk8: 38386a 44911519i bk9: 37951a 44936637i bk10: 39022a 44858473i bk11: 38494a 44879959i bk12: 38051a 44901259i bk13: 37608a 44968311i bk14: 38070a 44967150i bk15: 37501a 44990920i 

------------------------------------------------------------------------

Row_Buffer_Locality = 0.176396
Row_Buffer_Locality_read = 0.176508
Row_Buffer_Locality_write = 0.119629
Bank_Level_Parallism = 4.989045
Bank_Level_Parallism_Col = 0.642112
Bank_Level_Parallism_Ready = 1.017505
write_to_read_ratio_blp_rw_average = 0.000000
GrpLevelPara = 0.000000 

BW Util details:
bwutil = 0.050332 
total_CMD = 48210728 
util_bw = 2426520 
Wasted_Col = 6079104 
Wasted_Row = 2205706 
Idle = 37499398 

BW Util Bottlenecks: 
RCDc_limit = 8918408 
RCDWRc_limit = 11115 
WTRc_limit = 35543 
RTWc_limit = 29137 
CCDLc_limit = 407292 
rwq = 0 
CCDLc_limit_alone = 404156 
WTRc_limit_alone = 33787 
RTWc_limit_alone = 27757 

Commands details: 
total_CMD = 48210728 
n_nop = 46775178 
Read = 601882 
Write = 0 
L2_Alloc = 0 
L2_WB = 4748 
n_act = 496700 
n_pre = 496684 
n_ref = 7022926448984150560 
n_req = 603069 
total_req = 606630 

Dual Bus Interface Util: 
issued_total_row = 993384 
issued_total_col = 606630 
Row_Bus_Util =  0.020605 
CoL_Bus_Util = 0.012583 
Either_Row_CoL_Bus_Util = 0.029777 
Issued_on_Two_Bus_Simul_Util = 0.003411 
issued_two_Eff = 0.114565 
queue_avg = 3.016333 


dram_util_bins: 0 0 0 0 0 0 0 0 0 0
dram_eff_bins: 0 0 0 0 0 0 0 0 0 0
mrqq: max=64 avg=3.01633
Memory Partition 10: 
Cache L2_bank_020:
MSHR contents

Cache L2_bank_021:
MSHR contents

In Dram Latency Queue (total = 0): 
DRAM[10]: 16 bks, busW=2 BL=16 CL=24, tRRD=12 tCCD=4, tRCD=24 tRAS=55 tRP=24 tRC=78
n_cmd=48210728 n_nop=46779811 n_act=494905 n_pre=494889 n_ref_event=7022926448984150560 n_req=601364 n_rd=600176 n_rd_L2_A=0 n_write=0 n_wr_bk=4752 bw_util=0.05019
n_activity=12833814 dram_eff=0.1885
bk0: 37771a 44952578i bk1: 37835a 44971002i bk2: 37879a 44943418i bk3: 37107a 45033514i bk4: 36777a 44993405i bk5: 36490a 45011140i bk6: 35408a 45203552i bk7: 35809a 45118763i bk8: 38105a 44892948i bk9: 38678a 44836074i bk10: 38563a 44855661i bk11: 38676a 44858335i bk12: 37929a 44900848i bk13: 38088a 44885226i bk14: 37409a 44976950i bk15: 37652a 44955567i 

------------------------------------------------------------------------

Row_Buffer_Locality = 0.177046
Row_Buffer_Locality_read = 0.177186
Row_Buffer_Locality_write = 0.106061
Bank_Level_Parallism = 5.007590
Bank_Level_Parallism_Col = 0.642112
Bank_Level_Parallism_Ready = 1.017609
write_to_read_ratio_blp_rw_average = 0.000000
GrpLevelPara = 0.000000 

BW Util details:
bwutil = 0.050190 
total_CMD = 48210728 
util_bw = 2419712 
Wasted_Col = 6069222 
Wasted_Row = 2196111 
Idle = 37525683 

BW Util Bottlenecks: 
RCDc_limit = 8886786 
RCDWRc_limit = 11532 
WTRc_limit = 35466 
RTWc_limit = 27850 
CCDLc_limit = 403802 
rwq = 0 
CCDLc_limit_alone = 401110 
WTRc_limit_alone = 33866 
RTWc_limit_alone = 26758 

Commands details: 
total_CMD = 48210728 
n_nop = 46779811 
Read = 600176 
Write = 0 
L2_Alloc = 0 
L2_WB = 4752 
n_act = 494905 
n_pre = 494889 
n_ref = 7022926448984150560 
n_req = 601364 
total_req = 604928 

Dual Bus Interface Util: 
issued_total_row = 989794 
issued_total_col = 604928 
Row_Bus_Util =  0.020531 
CoL_Bus_Util = 0.012548 
Either_Row_CoL_Bus_Util = 0.029680 
Issued_on_Two_Bus_Simul_Util = 0.003398 
issued_two_Eff = 0.114476 
queue_avg = 3.096028 


dram_util_bins: 0 0 0 0 0 0 0 0 0 0
dram_eff_bins: 0 0 0 0 0 0 0 0 0 0
mrqq: max=64 avg=3.09603
Memory Partition 11: 
Cache L2_bank_022:
MSHR contents

Cache L2_bank_023:
MSHR contents

In Dram Latency Queue (total = 0): 
DRAM[11]: 16 bks, busW=2 BL=16 CL=24, tRRD=12 tCCD=4, tRCD=24 tRAS=55 tRP=24 tRC=78
n_cmd=48210728 n_nop=46756496 n_act=504439 n_pre=504423 n_ref_event=7022926448984150560 n_req=613014 n_rd=611826 n_rd_L2_A=0 n_write=0 n_wr_bk=4752 bw_util=0.05116
n_activity=12902269 dram_eff=0.1912
bk0: 38915a 44805956i bk1: 38494a 44900723i bk2: 38096a 44837325i bk3: 37634a 44914297i bk4: 37196a 44875063i bk5: 36907a 44946674i bk6: 36864a 44996581i bk7: 35552a 45158150i bk8: 39144a 44748982i bk9: 37901a 44831178i bk10: 39943a 44659220i bk11: 39198a 44733171i bk12: 39821a 44669547i bk13: 38897a 44774672i bk14: 38927a 44749288i bk15: 38337a 44826557i 

------------------------------------------------------------------------

Row_Buffer_Locality = 0.177133
Row_Buffer_Locality_read = 0.177292
Row_Buffer_Locality_write = 0.095118
Bank_Level_Parallism = 5.153119
Bank_Level_Parallism_Col = 0.642112
Bank_Level_Parallism_Ready = 1.017686
write_to_read_ratio_blp_rw_average = 0.000000
GrpLevelPara = 0.000000 

BW Util details:
bwutil = 0.051157 
total_CMD = 48210728 
util_bw = 2466312 
Wasted_Col = 6116955 
Wasted_Row = 2188645 
Idle = 37438816 

BW Util Bottlenecks: 
RCDc_limit = 9011385 
RCDWRc_limit = 11490 
WTRc_limit = 36768 
RTWc_limit = 27508 
CCDLc_limit = 418736 
rwq = 0 
CCDLc_limit_alone = 415788 
WTRc_limit_alone = 34890 
RTWc_limit_alone = 26438 

Commands details: 
total_CMD = 48210728 
n_nop = 46756496 
Read = 611826 
Write = 0 
L2_Alloc = 0 
L2_WB = 4752 
n_act = 504439 
n_pre = 504423 
n_ref = 7022926448984150560 
n_req = 613014 
total_req = 616578 

Dual Bus Interface Util: 
issued_total_row = 1008862 
issued_total_col = 616578 
Row_Bus_Util =  0.020926 
CoL_Bus_Util = 0.012789 
Either_Row_CoL_Bus_Util = 0.030164 
Issued_on_Two_Bus_Simul_Util = 0.003551 
issued_two_Eff = 0.117731 
queue_avg = 3.480347 


dram_util_bins: 0 0 0 0 0 0 0 0 0 0
dram_eff_bins: 0 0 0 0 0 0 0 0 0 0
mrqq: max=64 avg=3.48035

========= L2 cache stats =========
L2_cache_bank[0]: Access = 869916, Miss = 337542, Miss_rate = 0.388, Pending_hits = 1222, Reservation_fails = 37441
L2_cache_bank[1]: Access = 845790, Miss = 297515, Miss_rate = 0.352, Pending_hits = 425, Reservation_fails = 945
L2_cache_bank[2]: Access = 845029, Miss = 299175, Miss_rate = 0.354, Pending_hits = 423, Reservation_fails = 538
L2_cache_bank[3]: Access = 846421, Miss = 299064, Miss_rate = 0.353, Pending_hits = 369, Reservation_fails = 2132
L2_cache_bank[4]: Access = 841657, Miss = 301181, Miss_rate = 0.358, Pending_hits = 423, Reservation_fails = 1342
L2_cache_bank[5]: Access = 840765, Miss = 301730, Miss_rate = 0.359, Pending_hits = 398, Reservation_fails = 798
L2_cache_bank[6]: Access = 850024, Miss = 302895, Miss_rate = 0.356, Pending_hits = 432, Reservation_fails = 1108
L2_cache_bank[7]: Access = 852386, Miss = 302082, Miss_rate = 0.354, Pending_hits = 427, Reservation_fails = 424
L2_cache_bank[8]: Access = 859551, Miss = 310005, Miss_rate = 0.361, Pending_hits = 645, Reservation_fails = 7970
L2_cache_bank[9]: Access = 844426, Miss = 302918, Miss_rate = 0.359, Pending_hits = 437, Reservation_fails = 2793
L2_cache_bank[10]: Access = 857985, Miss = 312488, Miss_rate = 0.364, Pending_hits = 410, Reservation_fails = 104
L2_cache_bank[11]: Access = 843985, Miss = 299862, Miss_rate = 0.355, Pending_hits = 404, Reservation_fails = 277
L2_cache_bank[12]: Access = 845693, Miss = 306029, Miss_rate = 0.362, Pending_hits = 449, Reservation_fails = 930
L2_cache_bank[13]: Access = 845600, Miss = 302775, Miss_rate = 0.358, Pending_hits = 452, Reservation_fails = 548
L2_cache_bank[14]: Access = 862534, Miss = 318531, Miss_rate = 0.369, Pending_hits = 508, Reservation_fails = 579
L2_cache_bank[15]: Access = 851363, Miss = 301451, Miss_rate = 0.354, Pending_hits = 430, Reservation_fails = 1317
L2_cache_bank[16]: Access = 857424, Miss = 302304, Miss_rate = 0.353, Pending_hits = 655, Reservation_fails = 532
L2_cache_bank[17]: Access = 833150, Miss = 301710, Miss_rate = 0.362, Pending_hits = 436, Reservation_fails = 893
L2_cache_bank[18]: Access = 844896, Miss = 302872, Miss_rate = 0.358, Pending_hits = 402, Reservation_fails = 1492
L2_cache_bank[19]: Access = 853167, Miss = 300658, Miss_rate = 0.352, Pending_hits = 359, Reservation_fails = 2489
L2_cache_bank[20]: Access = 849943, Miss = 300653, Miss_rate = 0.354, Pending_hits = 407, Reservation_fails = 595
L2_cache_bank[21]: Access = 853948, Miss = 301211, Miss_rate = 0.353, Pending_hits = 483, Reservation_fails = 627
L2_cache_bank[22]: Access = 846381, Miss = 309790, Miss_rate = 0.366, Pending_hits = 543, Reservation_fails = 2513
L2_cache_bank[23]: Access = 843845, Miss = 303796, Miss_rate = 0.360, Pending_hits = 442, Reservation_fails = 9269
L2_total_cache_accesses = 20385879
L2_total_cache_misses = 7318237
L2_total_cache_miss_rate = 0.3590
L2_total_cache_pending_hits = 11581
L2_total_cache_reservation_fails = 77656
L2_total_cache_breakdown:
	L2_cache_stats_breakdown[GLOBAL_ACC_R][HIT] = 13019190
	L2_cache_stats_breakdown[GLOBAL_ACC_R][HIT_RESERVED] = 11581
	L2_cache_stats_breakdown[GLOBAL_ACC_R][MISS] = 4089221
	L2_cache_stats_breakdown[GLOBAL_ACC_R][RESERVATION_FAIL] = 77656
	L2_cache_stats_breakdown[GLOBAL_ACC_R][SECTOR_MISS] = 3208808
	L2_cache_stats_breakdown[GLOBAL_ACC_R][MSHR_HIT] = 11581
	L2_cache_stats_breakdown[LOCAL_ACC_R][HIT] = 0
	L2_cache_stats_breakdown[LOCAL_ACC_R][HIT_RESERVED] = 0
	L2_cache_stats_breakdown[LOCAL_ACC_R][MISS] = 0
	L2_cache_stats_breakdown[LOCAL_ACC_R][RESERVATION_FAIL] = 0
	L2_cache_stats_breakdown[LOCAL_ACC_R][SECTOR_MISS] = 0
	L2_cache_stats_breakdown[LOCAL_ACC_R][MSHR_HIT] = 0
	L2_cache_stats_breakdown[CONST_ACC_R][HIT] = 0
	L2_cache_stats_breakdown[CONST_ACC_R][HIT_RESERVED] = 0
	L2_cache_stats_breakdown[CONST_ACC_R][MISS] = 0
	L2_cache_stats_breakdown[CONST_ACC_R][RESERVATION_FAIL] = 0
	L2_cache_stats_breakdown[CONST_ACC_R][SECTOR_MISS] = 0
	L2_cache_stats_breakdown[CONST_ACC_R][MSHR_HIT] = 0
	L2_cache_stats_breakdown[TEXTURE_ACC_R][HIT] = 0
	L2_cache_stats_breakdown[TEXTURE_ACC_R][HIT_RESERVED] = 0
	L2_cache_stats_breakdown[TEXTURE_ACC_R][MISS] = 0
	L2_cache_stats_breakdown[TEXTURE_ACC_R][RESERVATION_FAIL] = 0
	L2_cache_stats_breakdown[TEXTURE_ACC_R][SECTOR_MISS] = 0
	L2_cache_stats_breakdown[TEXTURE_ACC_R][MSHR_HIT] = 0
	L2_cache_stats_breakdown[GLOBAL_ACC_W][HIT] = 36871
	L2_cache_stats_breakdown[GLOBAL_ACC_W][HIT_RESERVED] = 0
	L2_cache_stats_breakdown[GLOBAL_ACC_W][MISS] = 5052
	L2_cache_stats_breakdown[GLOBAL_ACC_W][RESERVATION_FAIL] = 0
	L2_cache_stats_breakdown[GLOBAL_ACC_W][SECTOR_MISS] = 15156
	L2_cache_stats_breakdown[GLOBAL_ACC_W][MSHR_HIT] = 0
	L2_cache_stats_breakdown[LOCAL_ACC_W][HIT] = 0
	L2_cache_stats_breakdown[LOCAL_ACC_W][HIT_RESERVED] = 0
	L2_cache_stats_breakdown[LOCAL_ACC_W][MISS] = 0
	L2_cache_stats_breakdown[LOCAL_ACC_W][RESERVATION_FAIL] = 0
	L2_cache_stats_breakdown[LOCAL_ACC_W][SECTOR_MISS] = 0
	L2_cache_stats_breakdown[LOCAL_ACC_W][MSHR_HIT] = 0
	L2_cache_stats_breakdown[L1_WRBK_ACC][HIT] = 0
	L2_cache_stats_breakdown[L1_WRBK_ACC][HIT_RESERVED] = 0
	L2_cache_stats_breakdown[L1_WRBK_ACC][MISS] = 0
	L2_cache_stats_breakdown[L1_WRBK_ACC][RESERVATION_FAIL] = 0
	L2_cache_stats_breakdown[L1_WRBK_ACC][SECTOR_MISS] = 0
	L2_cache_stats_breakdown[L1_WRBK_ACC][MSHR_HIT] = 0
	L2_cache_stats_breakdown[L2_WRBK_ACC][HIT] = 0
	L2_cache_stats_breakdown[L2_WRBK_ACC][HIT_RESERVED] = 0
	L2_cache_stats_breakdown[L2_WRBK_ACC][MISS] = 0
	L2_cache_stats_breakdown[L2_WRBK_ACC][RESERVATION_FAIL] = 0
	L2_cache_stats_breakdown[L2_WRBK_ACC][SECTOR_MISS] = 0
	L2_cache_stats_breakdown[L2_WRBK_ACC][MSHR_HIT] = 0
	L2_cache_stats_breakdown[INST_ACC_R][HIT] = 0
	L2_cache_stats_breakdown[INST_ACC_R][HIT_RESERVED] = 0
	L2_cache_stats_breakdown[INST_ACC_R][MISS] = 0
	L2_cache_stats_breakdown[INST_ACC_R][RESERVATION_FAIL] = 0
	L2_cache_stats_breakdown[INST_ACC_R][SECTOR_MISS] = 0
	L2_cache_stats_breakdown[INST_ACC_R][MSHR_HIT] = 0
	L2_cache_stats_breakdown[L1_WR_ALLOC_R][HIT] = 0
	L2_cache_stats_breakdown[L1_WR_ALLOC_R][HIT_RESERVED] = 0
	L2_cache_stats_breakdown[L1_WR_ALLOC_R][MISS] = 0
	L2_cache_stats_breakdown[L1_WR_ALLOC_R][RESERVATION_FAIL] = 0
	L2_cache_stats_breakdown[L1_WR_ALLOC_R][SECTOR_MISS] = 0
	L2_cache_stats_breakdown[L1_WR_ALLOC_R][MSHR_HIT] = 0
	L2_cache_stats_breakdown[L2_WR_ALLOC_R][HIT] = 0
	L2_cache_stats_breakdown[L2_WR_ALLOC_R][HIT_RESERVED] = 0
	L2_cache_stats_breakdown[L2_WR_ALLOC_R][MISS] = 0
	L2_cache_stats_breakdown[L2_WR_ALLOC_R][RESERVATION_FAIL] = 0
	L2_cache_stats_breakdown[L2_WR_ALLOC_R][SECTOR_MISS] = 0
	L2_cache_stats_breakdown[L2_WR_ALLOC_R][MSHR_HIT] = 0
	L2_cache_stats_breakdown[GLOBAL_ACC_R][TOTAL_ACCESS] = 20328800
	L2_cache_stats_breakdown[GLOBAL_ACC_W][TOTAL_ACCESS] = 57079
L2_total_cache_reservation_fail_breakdown:
	L2_cache_stats_fail_breakdown[GLOBAL_ACC_R][LINE_ALLOC_FAIL] = 41
	L2_cache_stats_fail_breakdown[GLOBAL_ACC_R][MSHR_ENRTY_FAIL] = 59687
	L2_cache_stats_fail_breakdown[GLOBAL_ACC_R][MSHR_MERGE_ENRTY_FAIL] = 17928
L2_cache_data_port_util = 0.029
L2_cache_fill_port_util = 0.016

icnt_total_pkts_mem_to_simt=20385879
icnt_total_pkts_simt_to_mem=20385879
LD_mem_lat_dist  0 0 0 0 0 0 0 0 0 0 0 0 0 0 0 0 0 0 0 0 0 0 0 0 0 0 0
ST_mem_lat_dist  0 0 0 0 0 0 0 0 0 0 0 0 0 0 0 0 0 0 0 0 0 0 0 0 0 0 0
----------------------------Interconnect-DETAILS--------------------------------
Req_Network_injected_packets_num = 20385879
Req_Network_cycles = 18799499
Req_Network_injected_packets_per_cycle =       1.0844 
Req_Network_conflicts_per_cycle =       1.0502
Req_Network_conflicts_per_cycle_util =       3.6990
Req_Bank_Level_Parallism =       3.8195
Req_Network_in_buffer_full_per_cycle =       0.0000
Req_Network_in_buffer_avg_util =       2.7277
Req_Network_out_buffer_full_per_cycle =       0.0368
Req_Network_out_buffer_avg_util =       3.3291

Reply_Network_injected_packets_num = 20385879
Reply_Network_cycles = 18799499
Reply_Network_injected_packets_per_cycle =        1.0844
Reply_Network_conflicts_per_cycle =        1.0111
Reply_Network_conflicts_per_cycle_util =       3.5736
Reply_Bank_Level_Parallism =       3.8325
Reply_Network_in_buffer_full_per_cycle =       0.0000
Reply_Network_in_buffer_avg_util =       0.1752
Reply_Network_out_buffer_full_per_cycle =       0.0000
Reply_Network_out_buffer_avg_util =       0.0361
----------------------------END-of-Interconnect-DETAILS-------------------------


gpgpu_simulation_time = 0 days, 15 hrs, 19 min, 2 sec (55142 sec)
gpgpu_simulation_rate = 2298 (inst/sec)
gpgpu_simulation_rate = 340 (cycle/sec)
gpgpu_silicon_slowdown = 4014705x
GPGPU-Sim: synchronize waiting for inactive GPU simulation
GPGPU-Sim API: Stream Manager State
GPGPU-Sim: detected inactive GPU simulation thread
	runtime [cuda_base] = 55105854.0050 ms (  0.00 GFLOP/s   0.0 GB/s) [L2 error 0.773592]
Verifying...
	runtime [serial] = 104.443000 ms.
Total element = 456626, || elements whose err <= %0.1 = 0 || elements whose 0.1 < err  <= %1 = 0 || elements whose %1 < err <= %5 = 0 || elements whose %5 < err <= %10 = 10 || elements whose %10 < err = 18208 || total err Element = 18218
	[max error  1.000000, and ]
POSSIBLE FAILURE
GPGPU-Sim: *** exit detected ***
