

        *** GPGPU-Sim Simulator Version 4.2.0  [build gpgpu-sim_git-commit-5e9d31b8132651796656877ecb58fde27177ba7a_modified_315.0] ***


GPGPU-Sim PTX: simulation mode 0 (can change with PTX_SIM_MODE_FUNC environment variable:
               1=functional simulation only, 0=detailed performance simulator)
GPGPU-Sim PTX: overriding embedded ptx with ptx file (PTX_SIM_USE_PTX_FILE is set)
GPGPU-Sim: Configuration options:

-save_embedded_ptx                      0 # saves ptx files embedded in binary as <n>.ptx
-keep                                   0 # keep intermediate files created by GPGPU-Sim when interfacing with external programs
-gpgpu_ptx_save_converted_ptxplus                    0 # Saved converted ptxplus to a file
-gpgpu_occupancy_sm_number                   75 # The SM number to pass to ptxas when getting register usage for computing GPU occupancy. This parameter is required in the config.
-ptx_opcode_latency_int           4,4,4,4,21 # Opcode latencies for integers <ADD,MAX,MUL,MAD,DIV,SHFL>Default 1,1,19,25,145,32
-ptx_opcode_latency_fp           4,4,4,4,39 # Opcode latencies for single precision floating points <ADD,MAX,MUL,MAD,DIV>Default 1,1,1,1,30
-ptx_opcode_latency_dp      64,64,64,64,330 # Opcode latencies for double precision floating points <ADD,MAX,MUL,MAD,DIV>Default 8,8,8,8,335
-ptx_opcode_latency_sfu                   21 # Opcode latencies for SFU instructionsDefault 8
-ptx_opcode_latency_tesnor                   64 # Opcode latencies for Tensor instructionsDefault 64
-ptx_opcode_initiation_int            2,2,2,2,2 # Opcode initiation intervals for integers <ADD,MAX,MUL,MAD,DIV,SHFL>Default 1,1,4,4,32,4
-ptx_opcode_initiation_fp            2,2,2,2,4 # Opcode initiation intervals for single precision floating points <ADD,MAX,MUL,MAD,DIV>Default 1,1,1,1,5
-ptx_opcode_initiation_dp      64,64,64,64,130 # Opcode initiation intervals for double precision floating points <ADD,MAX,MUL,MAD,DIV>Default 8,8,8,8,130
-ptx_opcode_initiation_sfu                    8 # Opcode initiation intervals for sfu instructionsDefault 8
-ptx_opcode_initiation_tensor                   64 # Opcode initiation intervals for tensor instructionsDefault 64
-cdp_latency         7200,8000,100,12000,1600 # CDP API latency <cudaStreamCreateWithFlags, cudaGetParameterBufferV2_init_perWarp, cudaGetParameterBufferV2_perKernel, cudaLaunchDeviceV2_init_perWarp, cudaLaunchDevicV2_perKernel>Default 7200,8000,100,12000,1600
-network_mode                           2 # Interconnection network mode
-inter_config_file                   mesh # Interconnection network config file
-icnt_in_buffer_limit                  512 # in_buffer_limit
-icnt_out_buffer_limit                  512 # out_buffer_limit
-icnt_subnets                           2 # subnets
-icnt_arbiter_algo                      1 # arbiter_algo
-icnt_verbose                           0 # inct_verbose
-icnt_grant_cycles                      1 # grant_cycles
-gpgpu_ptx_use_cuobjdump                    1 # Use cuobjdump to extract ptx and sass from binaries
-gpgpu_experimental_lib_support                    0 # Try to extract code from cuda libraries [Broken because of unknown cudaGetExportTable]
-checkpoint_option                      0 #  checkpointing flag (0 = no checkpoint)
-checkpoint_kernel                      1 #  checkpointing during execution of which kernel (1- 1st kernel)
-checkpoint_CTA                         0 #  checkpointing after # of CTA (< less than total CTA)
-resume_option                          0 #  resume flag (0 = no resume)
-resume_kernel                          0 #  Resume from which kernel (1= 1st kernel)
-resume_CTA                             0 #  resume from which CTA 
-checkpoint_CTA_t                       0 #  resume from which CTA 
-checkpoint_insn_Y                      0 #  resume from which CTA 
-gpgpu_ptx_convert_to_ptxplus                    0 # Convert SASS (native ISA) to ptxplus and run ptxplus
-gpgpu_ptx_force_max_capability                   75 # Force maximum compute capability
-gpgpu_ptx_inst_debug_to_file                    0 # Dump executed instructions' debug information to file
-gpgpu_ptx_inst_debug_file       inst_debug.txt # Executed instructions' debug output file
-gpgpu_ptx_inst_debug_thread_uid                    1 # Thread UID for executed instructions' debug output
-gpgpu_simd_model                       1 # 1 = post-dominator
-gpgpu_shader_core_pipeline              1024:32 # shader core pipeline config, i.e., {<nthread>:<warpsize>}
-gpgpu_tex_cache:l1  N:4:128:256,L:R:m:N:L,T:512:8,128:2 # per-shader L1 texture cache  (READ-ONLY) config  {<nsets>:<bsize>:<assoc>,<rep>:<wr>:<alloc>:<wr_alloc>,<mshr>:<N>:<merge>,<mq>:<rf>}
-gpgpu_const_cache:l1 N:128:64:8,L:R:f:N:L,S:2:64,4 # per-shader L1 constant memory cache  (READ-ONLY) config  {<nsets>:<bsize>:<assoc>,<rep>:<wr>:<alloc>:<wr_alloc>,<mshr>:<N>:<merge>,<mq>} 
-gpgpu_cache:il1     N:64:128:16,L:R:f:N:L,S:2:48,4 # shader L1 instruction cache config  {<nsets>:<bsize>:<assoc>,<rep>:<wr>:<alloc>:<wr_alloc>,<mshr>:<N>:<merge>,<mq>} 
-gpgpu_cache:dl1     S:4:128:64,L:T:m:L:L,A:256:32,16:0,32 # per-shader L1 data cache config  {<nsets>:<bsize>:<assoc>,<rep>:<wr>:<alloc>:<wr_alloc>,<mshr>:<N>:<merge>,<mq> | none}
-gpgpu_l1_cache_write_ratio                   25 # L1D write ratio
-gpgpu_l1_banks                         4 # The number of L1 cache banks
-gpgpu_l1_banks_byte_interleaving                   32 # l1 banks byte interleaving granularity
-gpgpu_l1_banks_hashing_function                    0 # l1 banks hashing function
-gpgpu_l1_latency                      32 # L1 Hit Latency
-gpgpu_smem_latency                    30 # smem Latency
-gpgpu_cache:dl1PrefL1                 none # per-shader L1 data cache config  {<nsets>:<bsize>:<assoc>,<rep>:<wr>:<alloc>:<wr_alloc>,<mshr>:<N>:<merge>,<mq> | none}
-gpgpu_cache:dl1PrefShared                 none # per-shader L1 data cache config  {<nsets>:<bsize>:<assoc>,<rep>:<wr>:<alloc>:<wr_alloc>,<mshr>:<N>:<merge>,<mq> | none}
-gpgpu_gmem_skip_L1D                    0 # global memory access skip L1D cache (implements -Xptxas -dlcm=cg, default=no skip)
-gpgpu_perfect_mem                      0 # enable perfect memory mode (no cache miss)
-n_regfile_gating_group                    4 # group of lanes that should be read/written together)
-gpgpu_clock_gated_reg_file                    0 # enable clock gated reg file for power calculations
-gpgpu_clock_gated_lanes                    0 # enable clock gated lanes for power calculations
-gpgpu_shader_registers                65536 # Number of registers per shader core. Limits number of concurrent CTAs. (default 8192)
-gpgpu_registers_per_block                65536 # Maximum number of registers per CTA. (default 8192)
-gpgpu_ignore_resources_limitation                    0 # gpgpu_ignore_resources_limitation (default 0)
-gpgpu_shader_cta                      16 # Maximum number of concurrent CTAs in shader (default 32)
-gpgpu_num_cta_barriers                   16 # Maximum number of named barriers per CTA (default 16)
-gpgpu_n_clusters                      30 # number of processing clusters
-gpgpu_n_cores_per_cluster                    1 # number of simd cores per cluster
-gpgpu_n_cluster_ejection_buffer_size                   32 # number of packets in ejection buffer
-gpgpu_n_ldst_response_buffer_size                    2 # number of response packets in ld/st unit ejection buffer
-gpgpu_shmem_per_block                49152 # Size of shared memory per thread block or CTA (default 48kB)
-gpgpu_shmem_size                   65536 # Size of shared memory per shader core (default 16kB)
-gpgpu_shmem_option                 32,64 # Option list of shared memory sizes
-gpgpu_unified_l1d_size                   96 # Size of unified data cache(L1D + shared memory) in KB
-gpgpu_adaptive_cache_config                    1 # adaptive_cache_config
-gpgpu_shmem_sizeDefault                65536 # Size of shared memory per shader core (default 16kB)
-gpgpu_shmem_size_PrefL1                16384 # Size of shared memory per shader core (default 16kB)
-gpgpu_shmem_size_PrefShared                16384 # Size of shared memory per shader core (default 16kB)
-gpgpu_shmem_num_banks                   32 # Number of banks in the shared memory in each shader core (default 16)
-gpgpu_shmem_limited_broadcast                    0 # Limit shared memory to do one broadcast per cycle (default on)
-gpgpu_shmem_warp_parts                    1 # Number of portions a warp is divided into for shared memory bank conflict check 
-gpgpu_mem_unit_ports                    1 # The number of memory transactions allowed per core cycle
-gpgpu_shmem_warp_parts                    1 # Number of portions a warp is divided into for shared memory bank conflict check 
-gpgpu_warpdistro_shader                   -1 # Specify which shader core to collect the warp size distribution from
-gpgpu_warp_issue_shader                    0 # Specify which shader core to collect the warp issue distribution from
-gpgpu_local_mem_map                    1 # Mapping from local memory space address to simulated GPU physical address space (default = enabled)
-gpgpu_num_reg_banks                    8 # Number of register banks (default = 8)
-gpgpu_reg_bank_use_warp_id                    0 # Use warp ID in mapping registers to banks (default = off)
-gpgpu_sub_core_model                    1 # Sub Core Volta/Pascal model (default = off)
-gpgpu_enable_specialized_operand_collector                    0 # enable_specialized_operand_collector
-gpgpu_operand_collector_num_units_sp                    4 # number of collector units (default = 4)
-gpgpu_operand_collector_num_units_dp                    0 # number of collector units (default = 0)
-gpgpu_operand_collector_num_units_sfu                    4 # number of collector units (default = 4)
-gpgpu_operand_collector_num_units_int                    0 # number of collector units (default = 0)
-gpgpu_operand_collector_num_units_tensor_core                    4 # number of collector units (default = 4)
-gpgpu_operand_collector_num_units_mem                    2 # number of collector units (default = 2)
-gpgpu_operand_collector_num_units_gen                    8 # number of collector units (default = 0)
-gpgpu_operand_collector_num_in_ports_sp                    1 # number of collector unit in ports (default = 1)
-gpgpu_operand_collector_num_in_ports_dp                    0 # number of collector unit in ports (default = 0)
-gpgpu_operand_collector_num_in_ports_sfu                    1 # number of collector unit in ports (default = 1)
-gpgpu_operand_collector_num_in_ports_int                    0 # number of collector unit in ports (default = 0)
-gpgpu_operand_collector_num_in_ports_tensor_core                    1 # number of collector unit in ports (default = 1)
-gpgpu_operand_collector_num_in_ports_mem                    1 # number of collector unit in ports (default = 1)
-gpgpu_operand_collector_num_in_ports_gen                    8 # number of collector unit in ports (default = 0)
-gpgpu_operand_collector_num_out_ports_sp                    1 # number of collector unit in ports (default = 1)
-gpgpu_operand_collector_num_out_ports_dp                    0 # number of collector unit in ports (default = 0)
-gpgpu_operand_collector_num_out_ports_sfu                    1 # number of collector unit in ports (default = 1)
-gpgpu_operand_collector_num_out_ports_int                    0 # number of collector unit in ports (default = 0)
-gpgpu_operand_collector_num_out_ports_tensor_core                    1 # number of collector unit in ports (default = 1)
-gpgpu_operand_collector_num_out_ports_mem                    1 # number of collector unit in ports (default = 1)
-gpgpu_operand_collector_num_out_ports_gen                    8 # number of collector unit in ports (default = 0)
-gpgpu_coalesce_arch                   75 # Coalescing arch (GT200 = 13, Fermi = 20)
-gpgpu_num_sched_per_core                    4 # Number of warp schedulers per core
-gpgpu_max_insn_issue_per_warp                    1 # Max number of instructions that can be issued per warp in one cycle by scheduler (either 1 or 2)
-gpgpu_dual_issue_diff_exec_units                    1 # should dual issue use two different execution unit resources (Default = 1)
-gpgpu_simt_core_sim_order                    1 # Select the simulation order of cores in a cluster (0=Fix, 1=Round-Robin)
-gpgpu_pipeline_widths 4,4,4,4,4,4,4,4,4,4,8,4,4 # Pipeline widths ID_OC_SP,ID_OC_DP,ID_OC_INT,ID_OC_SFU,ID_OC_MEM,OC_EX_SP,OC_EX_DP,OC_EX_INT,OC_EX_SFU,OC_EX_MEM,EX_WB,ID_OC_TENSOR_CORE,OC_EX_TENSOR_CORE
-gpgpu_tensor_core_avail                    1 # Tensor Core Available (default=0)
-gpgpu_num_sp_units                     4 # Number of SP units (default=1)
-gpgpu_num_dp_units                     4 # Number of DP units (default=0)
-gpgpu_num_int_units                    4 # Number of INT units (default=0)
-gpgpu_num_sfu_units                    4 # Number of SF units (default=1)
-gpgpu_num_tensor_core_units                    4 # Number of tensor_core units (default=1)
-gpgpu_num_mem_units                    1 # Number if ldst units (default=1) WARNING: not hooked up to anything
-gpgpu_scheduler                      lrr # Scheduler configuration: < lrr | gto | two_level_active > If two_level_active:<num_active_warps>:<inner_prioritization>:<outer_prioritization>For complete list of prioritization values see shader.h enum scheduler_prioritization_typeDefault: gto
-gpgpu_concurrent_kernel_sm                    0 # Support concurrent kernels on a SM (default = disabled)
-gpgpu_perfect_inst_const_cache                    1 # perfect inst and const cache mode, so all inst and const hits in the cache(default = disabled)
-gpgpu_inst_fetch_throughput                    4 # the number of fetched intruction per warp each cycle
-gpgpu_reg_file_port_throughput                    2 # the number ports of the register file
-specialized_unit_1         0,4,4,4,4,BRA # specialized unit config {<enabled>,<num_units>:<latency>:<initiation>,<ID_OC_SPEC>:<OC_EX_SPEC>,<NAME>}
-specialized_unit_2         0,4,4,4,4,BRA # specialized unit config {<enabled>,<num_units>:<latency>:<initiation>,<ID_OC_SPEC>:<OC_EX_SPEC>,<NAME>}
-specialized_unit_3         0,4,4,4,4,BRA # specialized unit config {<enabled>,<num_units>:<latency>:<initiation>,<ID_OC_SPEC>:<OC_EX_SPEC>,<NAME>}
-specialized_unit_4         0,4,4,4,4,BRA # specialized unit config {<enabled>,<num_units>:<latency>:<initiation>,<ID_OC_SPEC>:<OC_EX_SPEC>,<NAME>}
-specialized_unit_5         0,4,4,4,4,BRA # specialized unit config {<enabled>,<num_units>:<latency>:<initiation>,<ID_OC_SPEC>:<OC_EX_SPEC>,<NAME>}
-specialized_unit_6         0,4,4,4,4,BRA # specialized unit config {<enabled>,<num_units>:<latency>:<initiation>,<ID_OC_SPEC>:<OC_EX_SPEC>,<NAME>}
-specialized_unit_7         0,4,4,4,4,BRA # specialized unit config {<enabled>,<num_units>:<latency>:<initiation>,<ID_OC_SPEC>:<OC_EX_SPEC>,<NAME>}
-specialized_unit_8         0,4,4,4,4,BRA # specialized unit config {<enabled>,<num_units>:<latency>:<initiation>,<ID_OC_SPEC>:<OC_EX_SPEC>,<NAME>}
-gpgpu_perf_sim_memcpy                    1 # Fill the L2 cache on memcpy
-gpgpu_simple_dram_model                    0 # simple_dram_model with fixed latency and BW
-gpgpu_dram_scheduler                    1 # 0 = fifo, 1 = FR-FCFS (defaul)
-gpgpu_dram_partition_queues          64:64:64:64 # i2$:$2d:d2$:$2i
-l2_ideal                               0 # Use a ideal L2 cache that always hit
-gpgpu_cache:dl2     S:64:128:16,L:B:m:L:P,A:192:4,32:0,32 # unified banked L2 data cache config  {<nsets>:<bsize>:<assoc>,<rep>:<wr>:<alloc>:<wr_alloc>,<mshr>:<N>:<merge>,<mq>}
-gpgpu_cache:dl2_texture_only                    0 # L2 cache used for texture only
-gpgpu_n_mem                           12 # number of memory modules (e.g. memory controllers) in gpu
-gpgpu_n_sub_partition_per_mchannel                    2 # number of memory subpartition in each memory module
-gpgpu_n_mem_per_ctrlr                    1 # number of memory chips per memory controller
-gpgpu_memlatency_stat                   14 # track and display latency statistics 0x2 enables MC, 0x4 enables queue logs
-gpgpu_frfcfs_dram_sched_queue_size                   64 # 0 = unlimited (default); # entries per chip
-gpgpu_dram_return_queue_size                  192 # 0 = unlimited (default); # entries per chip
-gpgpu_dram_buswidth                    2 # default = 4 bytes (8 bytes per cycle at DDR)
-gpgpu_dram_burst_length                   16 # Burst length of each DRAM request (default = 4 data bus cycle)
-dram_data_command_freq_ratio                    4 # Frequency ratio between DRAM data bus and command bus (default = 2 times, i.e. DDR)
-gpgpu_dram_timing_opt nbk=16:CCD=4:RRD=12:RCD=24:RAS=55:RP=24:RC=78:CL=24:WL=8:CDLR=10:WR=24:nbkgrp=4:CCDL=6:RTPL=4 # DRAM timing parameters = {nbk:tCCD:tRRD:tRCD:tRAS:tRP:tRC:CL:WL:tCDLR:tWR:nbkgrp:tCCDL:tRTPL}
-gpgpu_l2_rop_latency                  194 # ROP queue latency (default 85)
-dram_latency                          96 # DRAM latency (default 30)
-dram_dual_bus_interface                    0 # dual_bus_interface (default = 0) 
-dram_bnk_indexing_policy                    0 # dram_bnk_indexing_policy (0 = normal indexing, 1 = Xoring with the higher bits) (Default = 0)
-dram_bnkgrp_indexing_policy                    1 # dram_bnkgrp_indexing_policy (0 = take higher bits, 1 = take lower bits) (Default = 0)
-dram_seperate_write_queue_enable                    0 # Seperate_Write_Queue_Enable
-dram_write_queue_size             32:28:16 # Write_Queue_Size
-dram_elimnate_rw_turnaround                    0 # elimnate_rw_turnaround i.e set tWTR and tRTW = 0
-icnt_flit_size                        40 # icnt_flit_size
-icnt_flit_size                        40 # icnt_flit_size
-mem_profiler                           0 # memory access runtime profiling (0 = not enabled)
-gpgpu_mem_addr_mapping dramid@8;00000000.00000000.00000000.00000000.0000RRRR.RRRRRRRR.RBBBCCCC.BCCSSSSS # mapping memory address to dram model {dramid@<start bit>;<memory address map>}
-gpgpu_mem_addr_test                    0 # run sweep test to check address mapping for aliased address
-gpgpu_mem_address_mask                    1 # 0 = old addressing mask, 1 = new addressing mask, 2 = new add. mask + flipped bank sel and chip sel bits
-gpgpu_memory_partition_indexing                    0 # 0 = no indexing, 1 = bitwise xoring, 2 = IPoly, 3 = custom indexing
-accelwattch_xml_file accelwattch_sass_sim.xml # AccelWattch XML file
-power_simulation_enabled                    1 # Turn on power simulator (1=On, 0=Off)
-power_per_cycle_dump                    1 # Dump detailed power output each cycle
-hw_perf_file_name            hw_perf.csv # Hardware Performance Statistics file
-hw_perf_bench_name    hw_perf_bench_name # Kernel Name in Hardware Performance Statistics file
-power_simulation_mode                    0 # Switch performance counter input for power simulation (0=Sim, 1=HW, 2=HW-Sim Hybrid)
-dvfs_enabled                           1 # Turn on DVFS for power model
-aggregate_power_stats                    0 # Accumulate power across all kernels
-accelwattch_hybrid_perfsim_L1_RH                    0 # Get L1 Read Hits for Accelwattch-Hybrid from Accel-Sim
-accelwattch_hybrid_perfsim_L1_RM                    0 # Get L1 Read Misses for Accelwattch-Hybrid from Accel-Sim
-accelwattch_hybrid_perfsim_L1_WH                    0 # Get L1 Write Hits for Accelwattch-Hybrid from Accel-Sim
-accelwattch_hybrid_perfsim_L1_WM                    0 # Get L1 Write Misses for Accelwattch-Hybrid from Accel-Sim
-accelwattch_hybrid_perfsim_L2_RH                    0 # Get L2 Read Hits for Accelwattch-Hybrid from Accel-Sim
-accelwattch_hybrid_perfsim_L2_RM                    0 # Get L2 Read Misses for Accelwattch-Hybrid from Accel-Sim
-accelwattch_hybrid_perfsim_L2_WH                    0 # Get L2 Write Hits for Accelwattch-Hybrid from Accel-Sim
-accelwattch_hybrid_perfsim_L2_WM                    0 # Get L2 Write Misses for Accelwattch-Hybrid from Accel-Sim
-accelwattch_hybrid_perfsim_CC_ACC                    0 # Get Constant Cache Acesses for Accelwattch-Hybrid from Accel-Sim
-accelwattch_hybrid_perfsim_SHARED_ACC                    0 # Get Shared Memory Acesses for Accelwattch-Hybrid from Accel-Sim
-accelwattch_hybrid_perfsim_DRAM_RD                    0 # Get DRAM Reads for Accelwattch-Hybrid from Accel-Sim
-accelwattch_hybrid_perfsim_DRAM_WR                    0 # Get DRAM Writes for Accelwattch-Hybrid from Accel-Sim
-accelwattch_hybrid_perfsim_NOC                    0 # Get Interconnect Acesses for Accelwattch-Hybrid from Accel-Sim
-accelwattch_hybrid_perfsim_PIPE_DUTY                    0 # Get Pipeline Duty Cycle Acesses for Accelwattch-Hybrid from Accel-Sim
-accelwattch_hybrid_perfsim_NUM_SM_IDLE                    0 # Get Number of Idle SMs for Accelwattch-Hybrid from Accel-Sim
-accelwattch_hybrid_perfsim_CYCLES                    0 # Get Executed Cycles for Accelwattch-Hybrid from Accel-Sim
-accelwattch_hybrid_perfsim_VOLTAGE                    0 # Get Chip Voltage for Accelwattch-Hybrid from Accel-Sim
-power_trace_enabled                    0 # produce a file for the power trace (1=On, 0=Off)
-power_trace_zlevel                     0 # Compression level of the power trace output log (0=no comp, 9=highest)
-steady_power_levels_enabled                    0 # produce a file for the steady power levels (1=On, 0=Off)
-steady_state_definition                  8:4 # allowed deviation:number of samples
-gpgpu_max_cycle                        0 # terminates gpu simulation early (0 = no limit)
-gpgpu_max_insn                         0 # terminates gpu simulation early (0 = no limit)
-gpgpu_max_cta                          0 # terminates gpu simulation early (0 = no limit)
-gpgpu_max_completed_cta                    0 # terminates gpu simulation early (0 = no limit)
-gpgpu_runtime_stat                  1000 # display runtime statistics such as dram utilization {<freq>:<flag>}
-liveness_message_freq                    1 # Minimum number of seconds between simulation liveness messages (0 = always print)
-gpgpu_compute_capability_major                    7 # Major compute capability version number
-gpgpu_compute_capability_minor                    5 # Minor compute capability version number
-gpgpu_flush_l1_cache                    1 # Flush L1 cache at the end of each kernel call
-gpgpu_flush_l2_cache                    0 # Flush L2 cache at the end of each kernel call
-gpgpu_deadlock_detect                    1 # Stop the simulation at deadlock (1=on (default), 0=off)
-gpgpu_ptx_instruction_classification                    0 # if enabled will classify ptx instruction types per kernel (Max 255 kernels now)
-gpgpu_ptx_sim_mode                     0 # Select between Performance (default) or Functional simulation (1)
-gpgpu_clock_domains 1365:1365:1365:3500.5 # Clock Domain Frequencies in MhZ {<Core Clock>:<ICNT Clock>:<L2 Clock>:<DRAM Clock>}
-gpgpu_max_concurrent_kernel                  128 # maximum kernels that can run concurrently on GPU, set this value according to max resident grids for your compute capability
-gpgpu_cflog_interval                    0 # Interval between each snapshot in control flow logger
-visualizer_enabled                     0 # Turn on visualizer output (1=On, 0=Off)
-visualizer_outputfile                 NULL # Specifies the output log file for visualizer
-visualizer_zlevel                      6 # Compression level of the visualizer output log (0=no comp, 9=highest)
-gpgpu_stack_size_limit                 1024 # GPU thread stack size
-gpgpu_heap_size_limit              8388608 # GPU malloc heap size 
-gpgpu_runtime_sync_depth_limit                    2 # GPU device runtime synchronize depth
-gpgpu_runtime_pending_launch_count_limit                 2048 # GPU device runtime pending launch count
-trace_enabled                          0 # Turn on traces
-trace_components                    none # comma seperated list of traces to enable. Complete list found in trace_streams.tup. Default none
-trace_sampling_core                    0 # The core which is printed using CORE_DPRINTF. Default 0
-trace_sampling_memory_partition                   -1 # The memory partition which is printed using MEMPART_DPRINTF. Default -1 (i.e. all)
-enable_ptx_file_line_stats                    1 # Turn on PTX source line statistic profiling. (1 = On)
-ptx_line_stats_filename gpgpu_inst_stats.txt # Output file for PTX source line statistics.
-gpgpu_kernel_launch_latency                 5000 # Kernel launch latency in cycles. Default: 0
-gpgpu_cdp_enabled                      0 # Turn on CDP
-gpgpu_TB_launch_latency                    0 # thread block launch latency in cycles. Default: 0
-mem_runtime_stat                     100 # memory access runtime profiling sampling20be9959047424737a0422e874fccc2e  /home/pars/Documents/sim_9/cc_afforest
Extracting PTX file and ptxas options    1: cc_afforest.1.sm_75.ptx -arch=sm_75
 freq
-L1D_metrics                            0 # memory access runtime profiling for L1 data cache
-IPC_per_prof_interval                    0 # IPC per profiling interval
-instruction_monitor                    0 # Instruction monitor
-noncoal_metrics                        0 # memory access runtime profiling for shared memory
-L2_metrics                             0 # memory access runtime profiling for L2 cache
-DRAM_metrics                           0 # memory access runtime profiling for DRAM
-Shmem_metrics                          0 # memory access runtime profiling for noncoalesced accesses
-store_enable                           0 # Enable stores for memory profiling
-accumulate_stats                       0 # Accumulate stats for the memory profiling
-dump_enable                            0 # Process dump enable flag - (def = 0)
-flush_l1d                              0 # Enable flushings for L1D caches - (default = 0)
-flush_l2                               0 # Enable flushings for L2 caches - (default = 0)
-flush_dram                             0 # Enable flushings for DRAM - (default = 0)
-flush_noncoalesceds                    0 # Enable flushings for non coalesced accesses - (default = 0)
-flush_shmems                           0 # Enable flushings for shared memory accesses - (default = 0)
-error_percentage          21474836480001 # Error percentage for the flushes - (default = 1)
-dump_sampling_cycle       21474836485000 # Dump sampling frequency - (default = 5000)
-flush_acc_type                         2 # Flush access types
-monitor_sampling_cycle                 5000 # Monitoring sampling cycle - (default = 5000)
DRAM Timing Options:
nbk                                    16 # number of banks
CCD                                     4 # column to column delay
RRD                                    12 # minimal delay between activation of rows in different banks
RCD                                    24 # row to column delay
RAS                                    55 # time needed to activate row
RP                                     24 # time needed to precharge (deactivate) row
RC                                     78 # row cycle time
CDLR                                   10 # switching from write to read (changes tWTR)
WR                                     24 # last data-in to row precharge
CL                                     24 # CAS latency
WL                                      8 # Write latency
nbkgrp                                  4 # number of bank groups
CCDL                                    6 # column to column delay between accesses to different bank groups
RTPL                                    4 # read to precharge delay between accesses to different bank groups
Total number of memory sub partition = 24
addr_dec_mask[CHIP]  = 0000000000000000 	high:64 low:0
addr_dec_mask[BK]    = 0000000000007080 	high:15 low:7
addr_dec_mask[ROW]   = 000000000fff8000 	high:28 low:15
addr_dec_mask[COL]   = 0000000000000f7f 	high:12 low:0
addr_dec_mask[BURST] = 000000000000001f 	high:5 low:0
sub_partition_id_mask = 0000000000000080
GPGPU-Sim uArch: clock freqs: 1365000000.000000:1365000000.000000:1365000000.000000:3500500000.000000
GPGPU-Sim uArch: clock periods: 0.00000000073260073260:0.00000000073260073260:0.00000000073260073260:0.00000000028567347522
*** Initializing Memory Statistics ***
GPGPU-Sim uArch: performance model initialization complete.
self exe links to: /home/pars/Documents/sim_9/cc_afforest
self exe links to: /home/pars/Documents/sim_9/cc_afforest
11.0
GPGPU-Sim PTX: __cudaRegisterFatBinary, fat_cubin_handle = 1, filename=default
self exe links to: /home/pars/Documents/sim_9/cc_afforest
Running md5sum using "md5sum /home/pars/Documents/sim_9/cc_afforest "
self exe links to: /home/pars/Documents/sim_9/cc_afforest
Extracting specific PTX file named cc_afforest.1.sm_75.ptx 
GPGPU-Sim PTX: __cudaRegisterFunction _Z17afforest_directediiPKmPKiS0_S2_Pii : hostFun 0x0x5587700fa5b6, fat_cubin_handle = 1
GPGPU-Sim PTX: Parsing cc_afforest.1.sm_75.ptx
GPGPU-Sim PTX: instruction assembly for function '_Z8compressiPi'...   done.
GPGPU-Sim PTX: instruction assembly for function '_Z8afforestiPKmPKiPii'...   done.
GPGPU-Sim PTX: instruction assembly for function '_Z19afforest_undirectediiPKmPKiPii'...   done.
GPGPU-Sim PTX: instruction assembly for function '_Z17afforest_directediiPKmPKiS0_S2_Pii'...   done.
GPGPU-Sim PTX: finished parsing EMBEDDED .ptx file cc_afforest.1.sm_75.ptx
GPGPU-Sim PTX: loading globals with explicit initializers... 
GPGPU-Sim PTX: finished loading globals (0 bytes total).
GPGPU-Sim PTX: loading constants with explicit initializers...  done.
GPGPU-Sim PTX: Loading PTXInfo from cc_afforest.1.sm_75.ptx
GPGPU-Sim PTX: Kernel '_Z17afforest_directediiPKmPKiS0_S2_Pii' : regs=16, lmem=0, smem=0, cmem=404
GPGPU-Sim PTX: Kernel '_Z19afforest_undirectediiPKmPKiPii' : regs=16, lmem=0, smem=0, cmem=388
GPGPU-Sim PTX: Kernel '_Z8afforestiPKmPKiPii' : regs=12, lmem=0, smem=0, cmem=388
GPGPU-Sim PTX: Kernel '_Z8compressiPi' : regs=12, lmem=0, smem=0, cmem=368
GPGPU-Sim PTX: __cudaRegisterFunction _Z19afforest_undirectediiPKmPKiPii : hostFun 0x0x5587700fa382, fat_cubin_handle = 1
GPGPU-Sim PTX: __cudaRegisterFunction _Z8afforestiPKmPKiPii : hostFun 0x0x5587700fa19c, fat_cubin_handle = 1
GPGPU-Sim PTX: __cudaRegisterFunction _Z8compressiPi : hostFun 0x0x5587700f9ff7, fat_cubin_handle = 1
Connected Component by Xuhao Chen
Reading (.mtx) input file ../CudaBenchmarks/gardenia/datasets/web-Google.mtx
Removing redundent edges... 1565976 redundent edges are removed
|V| 916428 |E| 8644102
This graph is symmetrized
Launching CUDA CC solver (3580 CTAs, 256 threads/CTA) ...
GPGPU-Sim PTX: Setting up arguments for 4 bytes starting at 0x7ffcd99ad1ec..
GPGPU-Sim PTX: Setting up arguments for 8 bytes starting at 0x7ffcd99ad1e0..
GPGPU-Sim PTX: Setting up arguments for 8 bytes starting at 0x7ffcd99ad1d8..
GPGPU-Sim PTX: Setting up arguments for 8 bytes starting at 0x7ffcd99ad1d0..
GPGPU-Sim PTX: Setting up arguments for 4 bytes starting at 0x7ffcd99ad1e8..

GPGPU-Sim PTX: cudaLaunch for 0x0x5587700fa19c (mode=performance simulation) on stream 0
GPGPU-Sim PTX: finding reconvergence points for '_Z8afforestiPKmPKiPii'...
GPGPU-Sim PTX: Finding dominators for '_Z8afforestiPKmPKiPii'...
GPGPU-Sim PTX: Finding immediate dominators for '_Z8afforestiPKmPKiPii'...
GPGPU-Sim PTX: Finding postdominators for '_Z8afforestiPKmPKiPii'...
GPGPU-Sim PTX: Finding immediate postdominators for '_Z8afforestiPKmPKiPii'...
GPGPU-Sim PTX: pre-decoding instructions for '_Z8afforestiPKmPKiPii'...
GPGPU-Sim PTX: reconvergence points for _Z8afforestiPKmPKiPii...
GPGPU-Sim PTX:  1 (potential) branch divergence @  PC=0x120 (cc_afforest.1.sm_75.ptx:82) @%p1 bra $L__BB1_9;

GPGPU-Sim PTX:    immediate post dominator      @  PC=0x288 (cc_afforest.1.sm_75.ptx:138) ret;

GPGPU-Sim PTX:  2 (potential) branch divergence @  PC=0x170 (cc_afforest.1.sm_75.ptx:93) @%p2 bra $L__BB1_9;

GPGPU-Sim PTX:    immediate post dominator      @  PC=0x288 (cc_afforest.1.sm_75.ptx:138) ret;

GPGPU-Sim PTX:  3 (potential) branch divergence @  PC=0x1d0 (cc_afforest.1.sm_75.ptx:106) @%p3 bra $L__BB1_9;

GPGPU-Sim PTX:    immediate post dominator      @  PC=0x288 (cc_afforest.1.sm_75.ptx:138) ret;

GPGPU-Sim PTX:  4 (potential) branch divergence @  PC=0x210 (cc_afforest.1.sm_75.ptx:116) @%p4 bra $L__BB1_9;

GPGPU-Sim PTX:    immediate post dominator      @  PC=0x288 (cc_afforest.1.sm_75.ptx:138) ret;

GPGPU-Sim PTX:  5 (potential) branch divergence @  PC=0x220 (cc_afforest.1.sm_75.ptx:119) @%p5 bra $L__BB1_8;

GPGPU-Sim PTX:    immediate post dominator      @  PC=0x288 (cc_afforest.1.sm_75.ptx:138) ret;

GPGPU-Sim PTX:  6 (potential) branch divergence @  PC=0x238 (cc_afforest.1.sm_75.ptx:123) @%p6 bra $L__BB1_9;

GPGPU-Sim PTX:    immediate post dominator      @  PC=0x288 (cc_afforest.1.sm_75.ptx:138) ret;

GPGPU-Sim PTX:  7 (potential) branch divergence @  PC=0x280 (cc_afforest.1.sm_75.ptx:135) @%p7 bra $L__BB1_4;

GPGPU-Sim PTX:    immediate post dominator      @  PC=0x288 (cc_afforest.1.sm_75.ptx:138) ret;

GPGPU-Sim PTX: ... end of reconvergence points for _Z8afforestiPKmPKiPii
GPGPU-Sim PTX: ... done pre-decoding instructions for '_Z8afforestiPKmPKiPii'.
GPGPU-Sim PTX: pushing kernel '_Z8afforestiPKmPKiPii' to stream 0, gridDim= (3580,1,1) blockDim = (256,1,1) 
GPGPU-Sim uArch: Shader 0 bind to kernel 1 '_Z8afforestiPKmPKiPii'
GPGPU-Sim uArch: CTA/core = 4, limited by: threads
GPGPU-Sim: Reconfigure L1 cache to 64KB
GPGPU-Sim uArch: Shader 1 bind to kernel 1 '_Z8afforestiPKmPKiPii'
GPGPU-Sim uArch: Shader 2 bind to kernel 1 '_Z8afforestiPKmPKiPii'
GPGPU-Sim uArch: Shader 3 bind to kernel 1 '_Z8afforestiPKmPKiPii'
GPGPU-Sim uArch: Shader 4 bind to kernel 1 '_Z8afforestiPKmPKiPii'
GPGPU-Sim uArch: Shader 5 bind to kernel 1 '_Z8afforestiPKmPKiPii'
GPGPU-Sim uArch: Shader 6 bind to kernel 1 '_Z8afforestiPKmPKiPii'
GPGPU-Sim uArch: Shader 7 bind to kernel 1 '_Z8afforestiPKmPKiPii'
GPGPU-Sim uArch: Shader 8 bind to kernel 1 '_Z8afforestiPKmPKiPii'
GPGPU-Sim uArch: Shader 9 bind to kernel 1 '_Z8afforestiPKmPKiPii'
GPGPU-Sim uArch: Shader 10 bind to kernel 1 '_Z8afforestiPKmPKiPii'
GPGPU-Sim uArch: Shader 11 bind to kernel 1 '_Z8afforestiPKmPKiPii'
GPGPU-Sim uArch: Shader 12 bind to kernel 1 '_Z8afforestiPKmPKiPii'
GPGPU-Sim uArch: Shader 13 bind to kernel 1 '_Z8afforestiPKmPKiPii'
GPGPU-Sim uArch: Shader 14 bind to kernel 1 '_Z8afforestiPKmPKiPii'
GPGPU-Sim uArch: Shader 15 bind to kernel 1 '_Z8afforestiPKmPKiPii'
GPGPU-Sim uArch: Shader 16 bind to kernel 1 '_Z8afforestiPKmPKiPii'
GPGPU-Sim uArch: Shader 17 bind to kernel 1 '_Z8afforestiPKmPKiPii'
GPGPU-Sim uArch: Shader 18 bind to kernel 1 '_Z8afforestiPKmPKiPii'
GPGPU-Sim uArch: Shader 19 bind to kernel 1 '_Z8afforestiPKmPKiPii'
GPGPU-Sim uArch: Shader 20 bind to kernel 1 '_Z8afforestiPKmPKiPii'
GPGPU-Sim uArch: Shader 21 bind to kernel 1 '_Z8afforestiPKmPKiPii'
GPGPU-Sim uArch: Shader 22 bind to kernel 1 '_Z8afforestiPKmPKiPii'
GPGPU-Sim uArch: Shader 23 bind to kernel 1 '_Z8afforestiPKmPKiPii'
GPGPU-Sim uArch: Shader 24 bind to kernel 1 '_Z8afforestiPKmPKiPii'
GPGPU-Sim uArch: Shader 25 bind to kernel 1 '_Z8afforestiPKmPKiPii'
GPGPU-Sim uArch: Shader 26 bind to kernel 1 '_Z8afforestiPKmPKiPii'
GPGPU-Sim uArch: Shader 27 bind to kernel 1 '_Z8afforestiPKmPKiPii'
GPGPU-Sim uArch: Shader 28 bind to kernel 1 '_Z8afforestiPKmPKiPii'
GPGPU-Sim uArch: Shader 29 bind to kernel 1 '_Z8afforestiPKmPKiPii'
Destroy streams for kernel 1: size 0
kernel_name = _Z8afforestiPKmPKiPii 
kernel_launch_uid = 1 
gpu_sim_cycle = 214543
gpu_sim_insn = 38243596
gpu_ipc =     178.2561
gpu_tot_sim_cycle = 214543
gpu_tot_sim_insn = 38243596
gpu_tot_ipc =     178.2561
gpu_tot_issued_cta = 3580
gpu_occupancy = 79.7296% 
gpu_tot_occupancy = 79.7296% 
max_total_param_size = 0
gpu_stall_dramfull = 524927
gpu_stall_icnt2sh    = 0
partiton_level_parallism =       9.8373
partiton_level_parallism_total  =       9.8373
partiton_level_parallism_util =      10.1380
partiton_level_parallism_util_total  =      10.1380
L2_BW  =     429.6953 GB/Sec
L2_BW_total  =     429.6953 GB/Sec
gpu_total_sim_rate=20353

========= Core cache stats =========
L1I_cache:
	L1I_total_cache_accesses = 0
	L1I_total_cache_misses = 0
	L1I_total_cache_pending_hits = 0
	L1I_total_cache_reservation_fails = 0
L1D_cache:
	L1D_cache_core[0]: Access = 77049, Miss = 61344, Miss_rate = 0.796, Pending_hits = 9087, Reservation_fails = 155916
	L1D_cache_core[1]: Access = 77714, Miss = 62038, Miss_rate = 0.798, Pending_hits = 9072, Reservation_fails = 138886
	L1D_cache_core[2]: Access = 77422, Miss = 62630, Miss_rate = 0.809, Pending_hits = 9086, Reservation_fails = 181012
	L1D_cache_core[3]: Access = 77432, Miss = 61607, Miss_rate = 0.796, Pending_hits = 9054, Reservation_fails = 164539
	L1D_cache_core[4]: Access = 76718, Miss = 61529, Miss_rate = 0.802, Pending_hits = 8954, Reservation_fails = 157186
	L1D_cache_core[5]: Access = 77835, Miss = 61642, Miss_rate = 0.792, Pending_hits = 9112, Reservation_fails = 129816
	L1D_cache_core[6]: Access = 77669, Miss = 61913, Miss_rate = 0.797, Pending_hits = 9100, Reservation_fails = 154654
	L1D_cache_core[7]: Access = 76943, Miss = 62310, Miss_rate = 0.810, Pending_hits = 9019, Reservation_fails = 194709
	L1D_cache_core[8]: Access = 76000, Miss = 61053, Miss_rate = 0.803, Pending_hits = 8880, Reservation_fails = 165017
	L1D_cache_core[9]: Access = 77301, Miss = 62090, Miss_rate = 0.803, Pending_hits = 9054, Reservation_fails = 151296
	L1D_cache_core[10]: Access = 76047, Miss = 61410, Miss_rate = 0.808, Pending_hits = 8880, Reservation_fails = 180451
	L1D_cache_core[11]: Access = 77873, Miss = 61973, Miss_rate = 0.796, Pending_hits = 9093, Reservation_fails = 129765
	L1D_cache_core[12]: Access = 77883, Miss = 62111, Miss_rate = 0.797, Pending_hits = 9156, Reservation_fails = 142386
	L1D_cache_core[13]: Access = 76786, Miss = 62209, Miss_rate = 0.810, Pending_hits = 9031, Reservation_fails = 180524
	L1D_cache_core[14]: Access = 79129, Miss = 62862, Miss_rate = 0.794, Pending_hits = 9265, Reservation_fails = 132566
	L1D_cache_core[15]: Access = 79388, Miss = 63020, Miss_rate = 0.794, Pending_hits = 9220, Reservation_fails = 132129
	L1D_cache_core[16]: Access = 80366, Miss = 63650, Miss_rate = 0.792, Pending_hits = 9389, Reservation_fails = 120860
	L1D_cache_core[17]: Access = 78981, Miss = 62846, Miss_rate = 0.796, Pending_hits = 9232, Reservation_fails = 123723
	L1D_cache_core[18]: Access = 77284, Miss = 62457, Miss_rate = 0.808, Pending_hits = 9054, Reservation_fails = 154229
	L1D_cache_core[19]: Access = 75209, Miss = 60746, Miss_rate = 0.808, Pending_hits = 8777, Reservation_fails = 168149
	L1D_cache_core[20]: Access = 77730, Miss = 61643, Miss_rate = 0.793, Pending_hits = 9038, Reservation_fails = 132485
	L1D_cache_core[21]: Access = 73572, Miss = 60132, Miss_rate = 0.817, Pending_hits = 8629, Reservation_fails = 193579
	L1D_cache_core[22]: Access = 76016, Miss = 61257, Miss_rate = 0.806, Pending_hits = 8883, Reservation_fails = 158718
	L1D_cache_core[23]: Access = 77074, Miss = 61477, Miss_rate = 0.798, Pending_hits = 9039, Reservation_fails = 152753
	L1D_cache_core[24]: Access = 77869, Miss = 62469, Miss_rate = 0.802, Pending_hits = 9139, Reservation_fails = 167000
	L1D_cache_core[25]: Access = 77590, Miss = 61732, Miss_rate = 0.796, Pending_hits = 9080, Reservation_fails = 134880
	L1D_cache_core[26]: Access = 78879, Miss = 62470, Miss_rate = 0.792, Pending_hits = 9268, Reservation_fails = 124425
	L1D_cache_core[27]: Access = 79163, Miss = 63282, Miss_rate = 0.799, Pending_hits = 9284, Reservation_fails = 142543
	L1D_cache_core[28]: Access = 76586, Miss = 61441, Miss_rate = 0.802, Pending_hits = 8974, Reservation_fails = 161573
	L1D_cache_core[29]: Access = 77167, Miss = 62096, Miss_rate = 0.805, Pending_hits = 9022, Reservation_fails = 152273
	L1D_total_cache_accesses = 2322675
	L1D_total_cache_misses = 1859439
	L1D_total_cache_miss_rate = 0.8006
	L1D_total_cache_pending_hits = 271871
	L1D_total_cache_reservation_fails = 4578042
	L1D_cache_data_port_util = 0.031
	L1D_cache_fill_port_util = 0.297
L1C_cache:
	L1C_total_cache_accesses = 0
	L1C_total_cache_misses = 0
	L1C_total_cache_pending_hits = 0
	L1C_total_cache_reservation_fails = 0
L1T_cache:
	L1T_total_cache_accesses = 0
	L1T_total_cache_misses = 0
	L1T_total_cache_pending_hits = 0
	L1T_total_cache_reservation_fails = 0

Total_core_cache_stats:
	Total_core_cache_stats_breakdown[GLOBAL_ACC_R][HIT] = 191365
	Total_core_cache_stats_breakdown[GLOBAL_ACC_R][HIT_RESERVED] = 271871
	Total_core_cache_stats_breakdown[GLOBAL_ACC_R][MISS] = 1233348
	Total_core_cache_stats_breakdown[GLOBAL_ACC_R][RESERVATION_FAIL] = 4578042
	Total_core_cache_stats_breakdown[GLOBAL_ACC_R][SECTOR_MISS] = 626091
	Total_core_cache_stats_breakdown[GLOBAL_ACC_R][MSHR_HIT] = 271871
	Total_core_cache_stats_breakdown[LOCAL_ACC_R][HIT] = 0
	Total_core_cache_stats_breakdown[LOCAL_ACC_R][HIT_RESERVED] = 0
	Total_core_cache_stats_breakdown[LOCAL_ACC_R][MISS] = 0
	Total_core_cache_stats_breakdown[LOCAL_ACC_R][RESERVATION_FAIL] = 0
	Total_core_cache_stats_breakdown[LOCAL_ACC_R][SECTOR_MISS] = 0
	Total_core_cache_stats_breakdown[LOCAL_ACC_R][MSHR_HIT] = 0
	Total_core_cache_stats_breakdown[CONST_ACC_R][HIT] = 0
	Total_core_cache_stats_breakdown[CONST_ACC_R][HIT_RESERVED] = 0
	Total_core_cache_stats_breakdown[CONST_ACC_R][MISS] = 0
	Total_core_cache_stats_breakdown[CONST_ACC_R][RESERVATION_FAIL] = 0
	Total_core_cache_stats_breakdown[CONST_ACC_R][SECTOR_MISS] = 0
	Total_core_cache_stats_breakdown[CONST_ACC_R][MSHR_HIT] = 0
	Total_core_cache_stats_breakdown[TEXTURE_ACC_R][HIT] = 0
	Total_core_cache_stats_breakdown[TEXTURE_ACC_R][HIT_RESERVED] = 0
	Total_core_cache_stats_breakdown[TEXTURE_ACC_R][MISS] = 0
	Total_core_cache_stats_breakdown[TEXTURE_ACC_R][RESERVATION_FAIL] = 0
	Total_core_cache_stats_breakdown[TEXTURE_ACC_R][SECTOR_MISS] = 0
	Total_core_cache_stats_breakdown[TEXTURE_ACC_R][MSHR_HIT] = 0
	Total_core_cache_stats_breakdown[GLOBAL_ACC_W][HIT] = 0
	Total_core_cache_stats_breakdown[GLOBAL_ACC_W][HIT_RESERVED] = 0
	Total_core_cache_stats_breakdown[GLOBAL_ACC_W][MISS] = 0
	Total_core_cache_stats_breakdown[GLOBAL_ACC_W][RESERVATION_FAIL] = 0
	Total_core_cache_stats_breakdown[GLOBAL_ACC_W][SECTOR_MISS] = 0
	Total_core_cache_stats_breakdown[GLOBAL_ACC_W][MSHR_HIT] = 0
	Total_core_cache_stats_breakdown[LOCAL_ACC_W][HIT] = 0
	Total_core_cache_stats_breakdown[LOCAL_ACC_W][HIT_RESERVED] = 0
	Total_core_cache_stats_breakdown[LOCAL_ACC_W][MISS] = 0
	Total_core_cache_stats_breakdown[LOCAL_ACC_W][RESERVATION_FAIL] = 0
	Total_core_cache_stats_breakdown[LOCAL_ACC_W][SECTOR_MISS] = 0
	Total_core_cache_stats_breakdown[LOCAL_ACC_W][MSHR_HIT] = 0
	Total_core_cache_stats_breakdown[L1_WRBK_ACC][HIT] = 0
	Total_core_cache_stats_breakdown[L1_WRBK_ACC][HIT_RESERVED] = 0
	Total_core_cache_stats_breakdown[L1_WRBK_ACC][MISS] = 0
	Total_core_cache_stats_breakdown[L1_WRBK_ACC][RESERVATION_FAIL] = 0
	Total_core_cache_stats_breakdown[L1_WRBK_ACC][SECTOR_MISS] = 0
	Total_core_cache_stats_breakdown[L1_WRBK_ACC][MSHR_HIT] = 0
	Total_core_cache_stats_breakdown[L2_WRBK_ACC][HIT] = 0
	Total_core_cache_stats_breakdown[L2_WRBK_ACC][HIT_RESERVED] = 0
	Total_core_cache_stats_breakdown[L2_WRBK_ACC][MISS] = 0
	Total_core_cache_stats_breakdown[L2_WRBK_ACC][RESERVATION_FAIL] = 0
	Total_core_cache_stats_breakdown[L2_WRBK_ACC][SECTOR_MISS] = 0
	Total_core_cache_stats_breakdown[L2_WRBK_ACC][MSHR_HIT] = 0
	Total_core_cache_stats_breakdown[INST_ACC_R][HIT] = 0
	Total_core_cache_stats_breakdown[INST_ACC_R][HIT_RESERVED] = 0
	Total_core_cache_stats_breakdown[INST_ACC_R][MISS] = 0
	Total_core_cache_stats_breakdown[INST_ACC_R][RESERVATION_FAIL] = 0
	Total_core_cache_stats_breakdown[INST_ACC_R][SECTOR_MISS] = 0
	Total_core_cache_stats_breakdown[INST_ACC_R][MSHR_HIT] = 0
	Total_core_cache_stats_breakdown[L1_WR_ALLOC_R][HIT] = 0
	Total_core_cache_stats_breakdown[L1_WR_ALLOC_R][HIT_RESERVED] = 0
	Total_core_cache_stats_breakdown[L1_WR_ALLOC_R][MISS] = 0
	Total_core_cache_stats_breakdown[L1_WR_ALLOC_R][RESERVATION_FAIL] = 0
	Total_core_cache_stats_breakdown[L1_WR_ALLOC_R][SECTOR_MISS] = 0
	Total_core_cache_stats_breakdown[L1_WR_ALLOC_R][MSHR_HIT] = 0
	Total_core_cache_stats_breakdown[L2_WR_ALLOC_R][HIT] = 0
	Total_core_cache_stats_breakdown[L2_WR_ALLOC_R][HIT_RESERVED] = 0
	Total_core_cache_stats_breakdown[L2_WR_ALLOC_R][MISS] = 0
	Total_core_cache_stats_breakdown[L2_WR_ALLOC_R][RESERVATION_FAIL] = 0
	Total_core_cache_stats_breakdown[L2_WR_ALLOC_R][SECTOR_MISS] = 0
	Total_core_cache_stats_breakdown[L2_WR_ALLOC_R][MSHR_HIT] = 0
	Total_core_cache_stats_breakdown[GLOBAL_ACC_R][TOTAL_ACCESS] = 2322675

Total_core_cache_fail_stats:
	Total_core_cache_fail_stats_breakdown[GLOBAL_ACC_R][MISS_QUEUE_FULL] = 648905
	Total_core_cache_fail_stats_breakdown[GLOBAL_ACC_R][MSHR_ENRTY_FAIL] = 3929137
ctas_completed 3580, Shader 0 warp_id issue ditsribution:
warp_id:
0, 1, 2, 3, 4, 5, 6, 7, 8, 9, 10, 11, 12, 13, 14, 15, 16, 17, 18, 19, 20, 21, 22, 23, 24, 25, 26, 27, 28, 29, 30, 31, 
distro:
1527, 1571, 1556, 1629, 1613, 1685, 1600, 1547, 1598, 1567, 1595, 1578, 1506, 1615, 1526, 1470, 1423, 1542, 1474, 1457, 1478, 1586, 1499, 1522, 1547, 1642, 1619, 1514, 1570, 1493, 1590, 1534, 
gpgpu_n_tot_thrd_icount = 47579200
gpgpu_n_tot_w_icount = 1486850
gpgpu_n_stall_shd_mem = 2055985
gpgpu_n_mem_read_local = 0
gpgpu_n_mem_write_local = 0
gpgpu_n_mem_read_global = 2110534
gpgpu_n_mem_write_global = 0
gpgpu_n_mem_texture = 0
gpgpu_n_mem_const = 0
gpgpu_n_load_insn  = 6161458
gpgpu_n_store_insn = 0
gpgpu_n_shmem_insn = 0
gpgpu_n_sstarr_insn = 0
gpgpu_n_tex_insn = 0
gpgpu_n_const_mem_insn = 0
gpgpu_n_param_mem_insn = 4582400
gpgpu_n_shmem_bkconflict = 0
gpgpu_n_cache_bkconflict = 0
gpgpu_n_intrawarp_mshr_merge = 0
gpgpu_n_cmem_portconflict = 0
gpgpu_stall_shd_mem[c_mem][resource_stall] = 0
gpgpu_stall_shd_mem[s_mem][bk_conf] = 0
gpgpu_stall_shd_mem[gl_mem][resource_stall] = 1653724
gpgpu_stall_shd_mem[gl_mem][coal_stall] = 402125
gpgpu_stall_shd_mem[gl_mem][data_port_stall] = 0
gpu_reg_bank_conflict_stalls = 0
Warp Occupancy Distribution:
Stall:1540698	W0_Idle:214463	W0_Scoreboard:21820001	W1:74793	W2:12706	W3:5416	W4:3517	W5:3191	W6:3157	W7:2559	W8:2151	W9:1391	W10:1266	W11:843	W12:600	W13:350	W14:130	W15:76	W16:36	W17:21	W18:15	W19:62	W20:197	W21:435	W22:1407	W23:3266	W24:8016	W25:14535	W26:27526	W27:45704	W28:74622	W29:108200	W30:151387	W31:166387	W32:772888
single_issue_nums: WS0:371995	WS1:372225	WS2:371301	WS3:371329	
dual_issue_nums: WS0:0	WS1:0	WS2:0	WS3:0	
traffic_breakdown_coretomem[GLOBAL_ACC_R] = 14875512 {8:1859439,}
traffic_breakdown_coretomem[GLOBAL_ATOMIC] = 10043800 {40:251095,}
traffic_breakdown_memtocore[GLOBAL_ACC_R] = 74377560 {40:1859439,}
traffic_breakdown_memtocore[GLOBAL_ATOMIC] = 10043800 {40:251095,}
maxmflatency = 3142 
max_icnt2mem_latency = 1664 
maxmrqlatency = 2071 
max_icnt2sh_latency = 279 
averagemflatency = 609 
avg_icnt2mem_latency = 131 
avg_mrq_latency = 121 
avg_icnt2sh_latency = 6 
mrq_lat_table:165861 	17095 	27467 	57606 	118817 	182460 	228805 	243142 	148349 	28014 	732 	1 	0 	0 	0 	0 	0 	0 	0 	0 	0 	0 	0 	0 	0 	0 	0 	0 	0 	0 	0 	0 	
dq_lat_table:0 	0 	0 	0 	0 	0 	0 	0 	0 	0 	0 	0 	0 	0 	0 	0 	0 	0 	0 	0 	0 	0 	0 	0 	0 	0 	0 	0 	0 	0 	0 	0 	
mf_lat_table:0 	0 	0 	0 	0 	0 	0 	369839 	636462 	829053 	270544 	4636 	0 	0 	0 	0 	0 	0 	0 	0 	0 	0 	0 	0 	0 	0 	0 	0 	0 	0 	0 	0 	
icnt2mem_lat_table:0 	82434 	51634 	29958 	17441 	885748 	483971 	258930 	200718 	89397 	10303 	0 	0 	0 	0 	0 	0 	0 	0 	0 	0 	0 	0 	0 	
icnt2sh_lat_table:0 	1384732 	439430 	174950 	61078 	22599 	16977 	10545 	223 	0 	0 	0 	0 	0 	0 	0 	0 	0 	0 	0 	0 	0 	0 	0 	
mf_lat_pw_table:0 	0 	0 	0 	0 	0 	0 	0 	21 	186 	2 	0 	0 	0 	0 	0 	0 	0 	0 	0 	0 	0 	0 	0 	0 	0 	0 	0 	0 	0 	0 	0 	
maximum concurrent accesses to same row:
dram[0]:        64        64        41        40        64        64        64        63        63        64        64        64        64        64        64        64 
dram[1]:        64        64        49        42        64        64        64        64        64        64        64        64        64        64        64        64 
dram[2]:        64        64        45        40        64        64        64        64        64        64        64        64        64        64        64        64 
dram[3]:        64        64        43        40        64        64        64        64        62        64        64        64        64        64        64        64 
dram[4]:        64        64        40        40        64        64        64        64        64        64        64        64        64        64        64        64 
dram[5]:        64        64        40        49        64        64        64        64        64        64        64        64        64        64        64        64 
dram[6]:        64        64        40        40        64        64        64        64        63        64        64        64        64        64        64        64 
dram[7]:        64        64        40        40        64        64        64        64        63        64        64        64        64        64        64        64 
dram[8]:        64        64        40        54        64        64        63        61        64        64        64        64        64        64        64        64 
dram[9]:        64        64        40        40        64        64        59        59        64        64        64        64        64        64        64        64 
dram[10]:        64        64        40        43        64        64        57        64        64        64        64        64        64        64        64        64 
dram[11]:        64        64        40        40        64        64        64        64        64        64        64        64        64        64        64        64 
maximum service time to same row:
dram[0]:      6033      5988      6166      6109      6565      6576      6570      6565      5611      5580      5614      5583      5803      5802      5811      5810 
dram[1]:      6003      5970      6068      6240      6488      6546      6520      6574      5641      5642      5645      5645      5804      5804      5813      5811 
dram[2]:      6038      6070      6236      6248      6579      6594      6652      6682      5746      5745      5749      5749      5801      5801      5820      5819 
dram[3]:      6031      6041      6206      6192      6579      6576      6621      6579      5734      5703      5737      5706      5834      5845      5843      5855 
dram[4]:      6036      5991      6148      6088      6576      6570      6577      6574      5611      5580      5614      5583      5803      5802      5811      5810 
dram[5]:      6004      5975      6070      6220      6499      6544      6571      6638      5641      5642      5645      5645      5804      5804      5813      5811 
dram[6]:      6036      6077      6212      6228      6603      6640      6757      6693      5746      5745      5749      5749      5801      5801      5820      5819 
dram[7]:      6027      6027      6200      6186      6504      6579      6574      6590      5734      5703      5737      5706      5833      5845      5841      5855 
dram[8]:      6025      5986      6150      6116      6566      6579      6571      6584      5611      5580      5614      5583      5802      5801      5810      5810 
dram[9]:      5989      5964      6068      6254      6519      6594      6521      6569      5641      5641      5644      5645      5803      5802      5811      5810 
dram[10]:      6043      6061      6224      6227      6673      6665      6628      6634      5745      5744      5748      5747      5801      5799      5820      5817 
dram[11]:      6019      6018      6206      6205      6622      6552      6533      6596      5733      5702      5736      5705      5833      5844      5842      5854 
average row accesses per activate:
dram[0]:  2.909091  3.002883  2.959165  3.013634  2.926874  3.043478  2.874944  3.070058  3.008992  3.136544  3.006187  3.031474  2.978417  3.129825  3.023706  3.066120 
dram[1]:  2.885993  2.982555  2.952048  2.946479  3.042763  2.985343  2.974540  2.933150  3.061051  3.167087  3.199898  3.031369  3.106549  3.120020  3.004255  3.015904 
dram[2]:  3.027333  2.963833  2.930296  2.986033  3.036862  2.995358  2.921839  2.924721  3.126321  3.070905  3.111219  3.110630  2.974678  3.038821  2.979611  3.017045 
dram[3]:  3.044639  2.975226  2.999526  3.043274  2.981105  2.980609  3.014446  2.972998  3.140508  3.073110  3.295966  3.056008  3.076511  3.082086  2.938149  2.980365 
dram[4]:  2.976633  3.004808  2.948835  2.996726  2.916068  2.937900  3.051985  3.035917  3.048348  3.111603  3.048425  3.133433  2.940388  3.087364  2.955108  3.062977 
dram[5]:  3.001930  2.976315  3.012615  3.001397  2.961008  3.031444  3.053186  3.014025  3.131890  3.081384  3.023333  3.191140  2.986321  3.005772  3.063254  3.001418 
dram[6]:  2.969106  2.994272  3.009117  2.988560  2.952493  3.105894  2.925772  3.061445  3.177688  3.086275  3.140087  3.123255  3.023256  2.974516  2.936668  3.096884 
dram[7]:  3.019203  2.958962  3.009953  2.935559  3.054606  3.032999  2.965999  3.006591  3.078125  3.122623  3.103314  3.063401  3.025887  3.139699  3.014306  2.908636 
dram[8]:  2.925247  2.949836  2.963867  3.004241  3.063551  3.012065  2.965278  2.947344  3.089618  3.084942  3.113625  3.099312  3.038041  2.983970  2.902484  3.041972 
dram[9]:  2.940622  3.016795  2.940989  3.018546  3.063097  2.967860  3.053398  3.008776  3.045477  3.194704  3.086872  3.052278  2.957297  3.033981  2.936309  2.941066 
dram[10]:  2.956194  3.031023  2.979257  3.010916  3.037639  3.059217  2.895475  3.138151  3.090863  3.123959  3.056540  3.051700  3.024842  2.992191  3.006211  3.074389 
dram[11]:  2.991296  3.016611  3.104004  3.013176  2.971993  2.989459  3.015253  3.073206  3.077304  3.137601  3.040913  3.081880  3.080950  3.106393  2.952731  3.007572 
average row locality = 1218349/402914 = 3.023844
number of total memory accesses made:
dram[0]:         0         0         0         0         0         0         0         0         0         0         0         0         0         0         0         0 
dram[1]:         0         0         0         0         0         0         0         0         0         0         0         0         0         0         0         0 
dram[2]:         0         0         0         0         0         0         0         0         0         0         0         0         0         0         0         0 
dram[3]:         0         0         0         0         0         0         0         0         0         0         0         0         0         0         0         0 
dram[4]:         0         0         0         0         0         0         0         0         0         0         0         0         0         0         0         0 
dram[5]:         0         0         0         0         0         0         0         0         0         0         0         0         0         0         0         0 
dram[6]:         0         0         0         0         0         0         0         0         0         0         0         0         0         0         0         0 
dram[7]:         0         0         0         0         0         0         0         0         0         0         0         0         0         0         0         0 
dram[8]:         0         0         0         0         0         0         0         0         0         0         0         0         0         0         0         0 
dram[9]:         0         0         0         0         0         0         0         0         0         0         0         0         0         0         0         0 
dram[10]:         0         0         0         0         0         0         0         0         0         0         0         0         0         0         0         0 
dram[11]:         0         0         0         0         0         0         0         0         0         0         0         0         0         0         0         0 
total accesses: 0
min_bank_accesses = 0!
min_chip_accesses = 0!
number of total read accesses:
dram[0]:      5857      5813      5897      5941      5937      5888      6005      5927      5897      5851      5849      5888      5774      5794      5797      5899 
dram[1]:      5753      5869      5866      5809      5978      5879      5846      5916      6009      5837      5831      5928      5901      5873      5877      5808 
dram[2]:      5932      5852      5955      5920      5955      5975      5863      5850      5778      5831      5949      5999      5987      5716      5966      5917 
dram[3]:      5797      5801      5883      5996      5837      5966      5966      6001      5845      5711      5835      5931      5847      5901      5777      5890 
dram[4]:      5779      5803      5961      5912      6008      5961      5991      5958      5900      5883      6027      5878      5883      5815      5954      5929 
dram[5]:      5771      5826      5747      5941      5772      5864      5915      5983      5895      5876      5908      5948      5871      5788      5886      5873 
dram[6]:      5799      5815      5832      5821      5823      6014      5880      6042      5845      5850      6002      6019      5908      5842      5901      5885 
dram[7]:      5822      5814      5879      5882      5931      5902      5895      5914      5846      5797      5909      5937      5843      5799      5848      5920 
dram[8]:      5752      5815      5864      5887      6075      6024      5945      5954      5863      5922      5750      5840      5913      5885      5856      5773 
dram[9]:      5784      5818      5992      5740      5921      5970      5822      6010      5788      5716      5861      5893      5865      5796      5852      5782 
dram[10]:      5808      5780      5731      5861      6046      5942      5928      5905      5707      5909      5930      6060      5767      6044      5823      5724 
dram[11]:      5738      5872      5897      5903      5990      6032      5899      5953      5769      5785      5954      5904      5870      5902      5959      5880 
total dram reads = 1129145
bank skew: 6075/5707 = 1.06
chip skew: 94642/93610 = 1.01
number of total write accesses:
dram[0]:       951       877       948       939       950       981       966       986       975       962       961       962       932       927       930       943 
dram[1]:       880       912       946       946       977       914       958      1000       962       909       934       948       954       938       960       922 
dram[2]:       969       917       960       972       948       972       992       921       927       919       940       941       983       967       955       962 
dram[3]:       952       915       907       950       952       983       989       973       928       909       939       947       977      1001       921       975 
dram[4]:       929       912       975       962       978       965       954       944       963       914       963       913       979       939      1001       976 
dram[5]:       915       920       928       982       938       987       950       957       962       939       944       952       947       960       969       967 
dram[6]:       916       910       896       921       948       960       941       973       939       926       968       973       968       957       990       955 
dram[7]:       924       934       935       911       984       920       958       950       942       921       935       924       979       930       960       983 
dram[8]:       933       941       893       957       968       953       959       976       928       963       917       954       976       949       937       942 
dram[9]:       922       922       962       901       990       964       924       996       921       906       945       982       948       937       946       943 
dram[10]:       941       935       901       969       957       927       972       978       889       956       933       981       919       983       965       892 
dram[11]:       899       969       921       981       958       988       895       992       933       924       909       937       998       979       945       969 
total dram writes = 181978
bank skew: 1001/877 = 1.14
chip skew: 15267/15060 = 1.01
average mf latency per bank:
dram[0]:        875       823      1057       932      1115       947       978       960       986       860       924       861       928       857       927       821
dram[1]:        771       844       958       957       989       933       892       899       889       878       835       833       831       844       791       809
dram[2]:       1733      1118      2027      1305      2183      1221      2040      1334      1902      1181      1990      1244      1810      1170      1750      1097
dram[3]:        845       798       980       912       983       937       881       919       976       871       899       856       830       879       819       848
dram[4]:       1236       999      1359      1205      1395      1157      1418      1072      1291      1029      1275      1061      1353      1009      1251       972
dram[5]:        724       734       840       817       868       883       867       874       815       796       767       854       776       811       764       738
dram[6]:        914       932      1189      1039      1045      1055      1098       985      1004      1059      1040       959       978       960       966       910
dram[7]:        906       799      1025       908      1081       950      1095       962       964       899      1018       867      1043       915       929       805
dram[8]:        847       873      1046       994      1001      1048       982      1035       937       956       911       908       855       915       845       898
dram[9]:        754       801       863      1034       893       902       897       909       817       916       867       834       849       801       752       809
dram[10]:        783       737       914       866       923       969       818       953       817       816       820       852       805       789       832       808
dram[11]:        861       901       970      1053       915      1005       940       951       886       918       841       863       836       868       799       907
maximum mf latency per bank:
dram[0]:       2070      1983      2152      2178      2440      2418      2054      2175      2280      1860      2005      2144      2321      2143      1943      1831
dram[1]:       1807      2030      1812      1906      2002      1930      2148      2218      2106      2071      1932      1925      2241      1775      2113      1944
dram[2]:       2674      2351      3142      2213      3104      2023      2799      1962      2820      2150      2879      2173      2698      2046      2839      2062
dram[3]:       1958      1889      1864      2019      2148      2021      1973      1913      1940      2101      2635      2142      2199      2360      2010      1859
dram[4]:       2138      2087      2365      1963      2567      2208      2449      2070      2508      2129      2382      2039      2223      2079      2390      2165
dram[5]:       2035      1784      2021      2373      2067      1854      2169      1873      2061      1784      2129      1901      1902      2108      1796      2110
dram[6]:       2143      2107      2435      2159      2216      2024      2261      2289      2267      2112      2314      2142      2734      2362      2351      2184
dram[7]:       2067      2082      2157      1987      2783      2015      2271      2020      2265      2147      2875      1945      2143      2068      2286      2097
dram[8]:       2072      2300      2046      2177      2052      2154      1914      1974      2267      2074      1926      2605      1995      1876      1832      1812
dram[9]:       1895      1977      2221      1943      2497      2221      1833      2171      2212      2163      2106      2001      2187      1887      1842      1888
dram[10]:       2100      1858      2098      1975      2273      2327      1971      2016      2064      2184      1892      1992      2181      1976      1904      1972
dram[11]:       1920      2329      1859      1853      2293      2309      2099      2001      2329      1871      1839      1867      2091      1894      2284      2449

Number of Memory Banks Accessed per Memory Operation per Warp (from 0):
0	0	0	0	0	0	0	0	0	0	0	0	0	0	0	0	0	0	0	0	0	0	0	0	0	0	0	0	0	0	0	0	0	0	0	0	0	0	0	0	0	0	0	0	0	0	0	0	0	0	0	0	0	0	0	0	0	0	0	0	0	0	0	0	0	0	0	0	0	0	0	0	0	0	0	0	0	0	0	0	0	0	0	0	0	0	0	0	0	0	0	0	0	0	0	0	0	0	0	0	0	0	0	0	0	0	0	0	0	0	0	0	0	0	0	0	0	0	0	0	0	0	0	0	0	0	0	0	0	0	0	0	0	0	0	0	0	0	0	0	0	0	0	0	0	0	0	0	0	0	0	0	0	0	0	0	0	0	0	0	0	0	0	0	0	0	0	0	0	0	0	0	0	0	0	0	0	0	0	0	0	0	0	0	0	0	0	0	0	0	0	0	
Average # of Memory Banks Accessed per Memory Operation per Warp=-nan

position of mrq chosen
0	0	0	0	0	0	0	0	0	0	0	0	0	0	0	0	0	0	0	0	0	0	0	0	0	0	0	0	0	0	0	0	0	0	0	0	0	0	0	0	0	0	0	0	0	0	0	0	0	0	0	0	0	0	0	0	0	0	0	0	0	0	0	0	

average position of mrq chosen = -nan
Memory Partition 0: 
Cache L2_bank_000:
MSHR contents

Cache L2_bank_001:
MSHR contents

In Dram Latency Queue (total = 0): 
DRAM[0]: 16 bks, busW=2 BL=16 CL=24, tRRD=12 tCCD=4, tRCD=24 tRAS=55 tRP=24 tRC=78
n_cmd=550187 n_nop=381470 n_act=33705 n_pre=33689 n_ref_event=0 n_req=101432 n_rd=94014 n_rd_L2_A=0 n_write=0 n_wr_bk=15190 bw_util=0.7939
n_activity=524586 dram_eff=0.8327
bk0: 5857a 160336i bk1: 5813a 170076i bk2: 5897a 162823i bk3: 5941a 160840i bk4: 5937a 164124i bk5: 5888a 157574i bk6: 6005a 151971i bk7: 5927a 157181i bk8: 5897a 156663i bk9: 5851a 167142i bk10: 5849a 164006i bk11: 5888a 160389i bk12: 5774a 173287i bk13: 5794a 170059i bk14: 5797a 172522i bk15: 5899a 161103i 

------------------------------------------------------------------------

Row_Buffer_Locality = 0.667708
Row_Buffer_Locality_read = 0.703746
Row_Buffer_Locality_write = 0.210973
Bank_Level_Parallism = 12.017323
Bank_Level_Parallism_Col = 8.156219
Bank_Level_Parallism_Ready = 2.827164
write_to_read_ratio_blp_rw_average = 0.413608
GrpLevelPara = 3.706309 

BW Util details:
bwutil = 0.793941 
total_CMD = 550187 
util_bw = 436816 
Wasted_Col = 85732 
Wasted_Row = 1116 
Idle = 26523 

BW Util Bottlenecks: 
RCDc_limit = 115625 
RCDWRc_limit = 14425 
WTRc_limit = 144379 
RTWc_limit = 320992 
CCDLc_limit = 74045 
rwq = 0 
CCDLc_limit_alone = 39265 
WTRc_limit_alone = 136534 
RTWc_limit_alone = 294057 

Commands details: 
total_CMD = 550187 
n_nop = 381470 
Read = 94014 
Write = 0 
L2_Alloc = 0 
L2_WB = 15190 
n_act = 33705 
n_pre = 33689 
n_ref = 0 
n_req = 101432 
total_req = 109204 

Dual Bus Interface Util: 
issued_total_row = 67394 
issued_total_col = 109204 
Row_Bus_Util =  0.122493 
CoL_Bus_Util = 0.198485 
Either_Row_CoL_Bus_Util = 0.306654 
Issued_on_Two_Bus_Simul_Util = 0.014324 
issued_two_Eff = 0.046711 
queue_avg = 56.686028 


dram_util_bins: 0 0 0 0 0 0 0 0 0 0
dram_eff_bins: 0 0 0 0 0 0 0 0 0 0
mrqq: max=64 avg=56.686
Memory Partition 1: 
Cache L2_bank_002:
MSHR contents

Cache L2_bank_003:
MSHR contents

In Dram Latency Queue (total = 0): 
DRAM[1]: 16 bks, busW=2 BL=16 CL=24, tRRD=12 tCCD=4, tRCD=24 tRAS=55 tRP=24 tRC=78
n_cmd=550187 n_nop=381803 n_act=33524 n_pre=33508 n_ref_event=0 n_req=101355 n_rd=93980 n_rd_L2_A=0 n_write=0 n_wr_bk=15060 bw_util=0.7927
n_activity=525089 dram_eff=0.8306
bk0: 5753a 177231i bk1: 5869a 156608i bk2: 5866a 157542i bk3: 5809a 154445i bk4: 5978a 147074i bk5: 5879a 163314i bk6: 5846a 161553i bk7: 5916a 142116i bk8: 6009a 161658i bk9: 5837a 185310i bk10: 5831a 178473i bk11: 5928a 167733i bk12: 5901a 174283i bk13: 5873a 162444i bk14: 5877a 150930i bk15: 5808a 173532i 

------------------------------------------------------------------------

Row_Buffer_Locality = 0.669242
Row_Buffer_Locality_read = 0.705373
Row_Buffer_Locality_write = 0.208814
Bank_Level_Parallism = 12.002843
Bank_Level_Parallism_Col = 1.000000
Bank_Level_Parallism_Ready = 2.845941
write_to_read_ratio_blp_rw_average = 0.000000
GrpLevelPara = 0.000000 

BW Util details:
bwutil = 0.792749 
total_CMD = 550187 
util_bw = 436160 
Wasted_Col = 86533 
Wasted_Row = 1257 
Idle = 26237 

BW Util Bottlenecks: 
RCDc_limit = 116360 
RCDWRc_limit = 13679 
WTRc_limit = 140469 
RTWc_limit = 332859 
CCDLc_limit = 76089 
rwq = 0 
CCDLc_limit_alone = 41501 
WTRc_limit_alone = 133047 
RTWc_limit_alone = 305693 

Commands details: 
total_CMD = 550187 
n_nop = 381803 
Read = 93980 
Write = 0 
L2_Alloc = 0 
L2_WB = 15060 
n_act = 33524 
n_pre = 33508 
n_ref = 0 
n_req = 101355 
total_req = 109040 

Dual Bus Interface Util: 
issued_total_row = 67032 
issued_total_col = 109040 
Row_Bus_Util =  0.121835 
CoL_Bus_Util = 0.198187 
Either_Row_CoL_Bus_Util = 0.306049 
Issued_on_Two_Bus_Simul_Util = 0.013973 
issued_two_Eff = 0.045658 
queue_avg = 56.873886 


dram_util_bins: 0 0 0 0 0 0 0 0 0 0
dram_eff_bins: 0 0 0 0 0 0 0 0 0 0
mrqq: max=64 avg=56.8739
Memory Partition 2: 
Cache L2_bank_004:
MSHR contents

Cache L2_bank_005:
MSHR contents

In Dram Latency Queue (total = 0): 
DRAM[2]: 16 bks, busW=2 BL=16 CL=24, tRRD=12 tCCD=4, tRCD=24 tRAS=55 tRP=24 tRC=78
n_cmd=550187 n_nop=380652 n_act=33838 n_pre=33822 n_ref_event=0 n_req=101919 n_rd=94445 n_rd_L2_A=0 n_write=0 n_wr_bk=15245 bw_util=0.7975
n_activity=524367 dram_eff=0.8367
bk0: 5932a 146890i bk1: 5852a 158424i bk2: 5955a 148123i bk3: 5920a 136214i bk4: 5955a 149226i bk5: 5975a 146510i bk6: 5863a 150522i bk7: 5850a 156674i bk8: 5778a 185897i bk9: 5831a 164549i bk10: 5949a 155815i bk11: 5999a 159743i bk12: 5987a 147112i bk13: 5716a 165476i bk14: 5966a 155213i bk15: 5917a 153046i 

------------------------------------------------------------------------

Row_Buffer_Locality = 0.667991
Row_Buffer_Locality_read = 0.703849
Row_Buffer_Locality_write = 0.214878
Bank_Level_Parallism = 12.276422
Bank_Level_Parallism_Col = 8.364562
Bank_Level_Parallism_Ready = 2.861861
write_to_read_ratio_blp_rw_average = 0.421868
GrpLevelPara = 3.745365 

BW Util details:
bwutil = 0.797474 
total_CMD = 550187 
util_bw = 438760 
Wasted_Col = 83736 
Wasted_Row = 742 
Idle = 26949 

BW Util Bottlenecks: 
RCDc_limit = 112921 
RCDWRc_limit = 13356 
WTRc_limit = 141170 
RTWc_limit = 345933 
CCDLc_limit = 77843 
rwq = 0 
CCDLc_limit_alone = 41529 
WTRc_limit_alone = 133197 
RTWc_limit_alone = 317592 

Commands details: 
total_CMD = 550187 
n_nop = 380652 
Read = 94445 
Write = 0 
L2_Alloc = 0 
L2_WB = 15245 
n_act = 33838 
n_pre = 33822 
n_ref = 0 
n_req = 101919 
total_req = 109690 

Dual Bus Interface Util: 
issued_total_row = 67660 
issued_total_col = 109690 
Row_Bus_Util =  0.122976 
CoL_Bus_Util = 0.199369 
Either_Row_CoL_Bus_Util = 0.308141 
Issued_on_Two_Bus_Simul_Util = 0.014204 
issued_two_Eff = 0.046097 
queue_avg = 59.838631 


dram_util_bins: 0 0 0 0 0 0 0 0 0 0
dram_eff_bins: 0 0 0 0 0 0 0 0 0 0
mrqq: max=64 avg=59.8386
Memory Partition 3: 
Cache L2_bank_006:
MSHR contents

Cache L2_bank_007:
MSHR contents

In Dram Latency Queue (total = 0): 
DRAM[3]: 16 bks, busW=2 BL=16 CL=24, tRRD=12 tCCD=4, tRCD=24 tRAS=55 tRP=24 tRC=78
n_cmd=550187 n_nop=381967 n_act=33391 n_pre=33375 n_ref_event=0 n_req=101458 n_rd=93984 n_rd_L2_A=0 n_write=0 n_wr_bk=15218 bw_util=0.7939
n_activity=525221 dram_eff=0.8317
bk0: 5797a 162905i bk1: 5801a 169456i bk2: 5883a 172907i bk3: 5996a 155415i bk4: 5837a 171394i bk5: 5966a 150790i bk6: 5966a 149261i bk7: 6001a 163646i bk8: 5845a 178197i bk9: 5711a 194862i bk10: 5835a 176995i bk11: 5931a 174417i bk12: 5847a 155737i bk13: 5901a 153551i bk14: 5777a 169821i bk15: 5890a 158517i 

------------------------------------------------------------------------

Row_Buffer_Locality = 0.670888
Row_Buffer_Locality_read = 0.706461
Row_Buffer_Locality_write = 0.223575
Bank_Level_Parallism = 11.915544
Bank_Level_Parallism_Col = 8.148361
Bank_Level_Parallism_Ready = 2.845042
write_to_read_ratio_blp_rw_average = 0.413544
GrpLevelPara = 3.716307 

BW Util details:
bwutil = 0.793926 
total_CMD = 550187 
util_bw = 436808 
Wasted_Col = 85944 
Wasted_Row = 1386 
Idle = 26049 

BW Util Bottlenecks: 
RCDc_limit = 114891 
RCDWRc_limit = 13980 
WTRc_limit = 145506 
RTWc_limit = 325468 
CCDLc_limit = 74329 
rwq = 0 
CCDLc_limit_alone = 39768 
WTRc_limit_alone = 137633 
RTWc_limit_alone = 298780 

Commands details: 
total_CMD = 550187 
n_nop = 381967 
Read = 93984 
Write = 0 
L2_Alloc = 0 
L2_WB = 15218 
n_act = 33391 
n_pre = 33375 
n_ref = 0 
n_req = 101458 
total_req = 109202 

Dual Bus Interface Util: 
issued_total_row = 66766 
issued_total_col = 109202 
Row_Bus_Util =  0.121351 
CoL_Bus_Util = 0.198482 
Either_Row_CoL_Bus_Util = 0.305751 
Issued_on_Two_Bus_Simul_Util = 0.014082 
issued_two_Eff = 0.046059 
queue_avg = 56.720699 


dram_util_bins: 0 0 0 0 0 0 0 0 0 0
dram_eff_bins: 0 0 0 0 0 0 0 0 0 0
mrqq: max=64 avg=56.7207
Memory Partition 4: 
Cache L2_bank_008:
MSHR contents

Cache L2_bank_009:
MSHR contents

In Dram Latency Queue (total = 0): 
DRAM[4]: 16 bks, busW=2 BL=16 CL=24, tRRD=12 tCCD=4, tRCD=24 tRAS=55 tRP=24 tRC=78
n_cmd=550187 n_nop=380454 n_act=33889 n_pre=33873 n_ref_event=0 n_req=102154 n_rd=94642 n_rd_L2_A=0 n_write=0 n_wr_bk=15267 bw_util=0.7991
n_activity=525012 dram_eff=0.8374
bk0: 5779a 159592i bk1: 5803a 163340i bk2: 5961a 139625i bk3: 5912a 146672i bk4: 6008a 141744i bk5: 5961a 154123i bk6: 5991a 155679i bk7: 5958a 155692i bk8: 5900a 166829i bk9: 5883a 169318i bk10: 6027a 156689i bk11: 5878a 166716i bk12: 5883a 154636i bk13: 5815a 166873i bk14: 5954a 147616i bk15: 5929a 143918i 

------------------------------------------------------------------------

Row_Buffer_Locality = 0.668256
Row_Buffer_Locality_read = 0.704328
Row_Buffer_Locality_write = 0.213791
Bank_Level_Parallism = 12.239136
Bank_Level_Parallism_Col = 8.315327
Bank_Level_Parallism_Ready = 2.887320
write_to_read_ratio_blp_rw_average = 0.417328
GrpLevelPara = 3.736576 

BW Util details:
bwutil = 0.799066 
total_CMD = 550187 
util_bw = 439636 
Wasted_Col = 83636 
Wasted_Row = 833 
Idle = 26082 

BW Util Bottlenecks: 
RCDc_limit = 113935 
RCDWRc_limit = 13635 
WTRc_limit = 144448 
RTWc_limit = 330768 
CCDLc_limit = 74088 
rwq = 0 
CCDLc_limit_alone = 39011 
WTRc_limit_alone = 136536 
RTWc_limit_alone = 303603 

Commands details: 
total_CMD = 550187 
n_nop = 380454 
Read = 94642 
Write = 0 
L2_Alloc = 0 
L2_WB = 15267 
n_act = 33889 
n_pre = 33873 
n_ref = 0 
n_req = 102154 
total_req = 109909 

Dual Bus Interface Util: 
issued_total_row = 67762 
issued_total_col = 109909 
Row_Bus_Util =  0.123162 
CoL_Bus_Util = 0.199767 
Either_Row_CoL_Bus_Util = 0.308501 
Issued_on_Two_Bus_Simul_Util = 0.014428 
issued_two_Eff = 0.046768 
queue_avg = 59.827118 


dram_util_bins: 0 0 0 0 0 0 0 0 0 0
dram_eff_bins: 0 0 0 0 0 0 0 0 0 0
mrqq: max=64 avg=59.8271
Memory Partition 5: 
Cache L2_bank_010:
MSHR contents

Cache L2_bank_011:
MSHR contents

In Dram Latency Queue (total = 0): 
DRAM[5]: 16 bks, busW=2 BL=16 CL=24, tRRD=12 tCCD=4, tRCD=24 tRAS=55 tRP=24 tRC=78
n_cmd=550187 n_nop=382214 n_act=33398 n_pre=33382 n_ref_event=0 n_req=101287 n_rd=93864 n_rd_L2_A=0 n_write=0 n_wr_bk=15217 bw_util=0.793
n_activity=524572 dram_eff=0.8318
bk0: 5771a 179053i bk1: 5826a 162397i bk2: 5747a 170574i bk3: 5941a 149365i bk4: 5772a 164609i bk5: 5864a 153256i bk6: 5915a 164145i bk7: 5983a 165516i bk8: 5895a 169581i bk9: 5876a 173505i bk10: 5908a 174318i bk11: 5948a 162062i bk12: 5871a 159510i bk13: 5788a 167443i bk14: 5886a 160879i bk15: 5873a 161994i 

------------------------------------------------------------------------

Row_Buffer_Locality = 0.670264
Row_Buffer_Locality_read = 0.706330
Row_Buffer_Locality_write = 0.214199
Bank_Level_Parallism = 11.962960
Bank_Level_Parallism_Col = 8.195325
Bank_Level_Parallism_Ready = 2.886202
write_to_read_ratio_blp_rw_average = 0.412014
GrpLevelPara = 3.716672 

BW Util details:
bwutil = 0.793047 
total_CMD = 550187 
util_bw = 436324 
Wasted_Col = 86057 
Wasted_Row = 1319 
Idle = 26487 

BW Util Bottlenecks: 
RCDc_limit = 115633 
RCDWRc_limit = 14123 
WTRc_limit = 144798 
RTWc_limit = 329172 
CCDLc_limit = 73691 
rwq = 0 
CCDLc_limit_alone = 39346 
WTRc_limit_alone = 136909 
RTWc_limit_alone = 302716 

Commands details: 
total_CMD = 550187 
n_nop = 382214 
Read = 93864 
Write = 0 
L2_Alloc = 0 
L2_WB = 15217 
n_act = 33398 
n_pre = 33382 
n_ref = 0 
n_req = 101287 
total_req = 109081 

Dual Bus Interface Util: 
issued_total_row = 66780 
issued_total_col = 109081 
Row_Bus_Util =  0.121377 
CoL_Bus_Util = 0.198262 
Either_Row_CoL_Bus_Util = 0.305302 
Issued_on_Two_Bus_Simul_Util = 0.014337 
issued_two_Eff = 0.046960 
queue_avg = 56.190582 


dram_util_bins: 0 0 0 0 0 0 0 0 0 0
dram_eff_bins: 0 0 0 0 0 0 0 0 0 0
mrqq: max=64 avg=56.1906
Memory Partition 6: 
Cache L2_bank_012:
MSHR contents

Cache L2_bank_013:
MSHR contents

In Dram Latency Queue (total = 0): 
DRAM[6]: 16 bks, busW=2 BL=16 CL=24, tRRD=12 tCCD=4, tRCD=24 tRAS=55 tRP=24 tRC=78
n_cmd=550187 n_nop=381485 n_act=33515 n_pre=33499 n_ref_event=0 n_req=101682 n_rd=94278 n_rd_L2_A=0 n_write=0 n_wr_bk=15141 bw_util=0.7955
n_activity=525288 dram_eff=0.8332
bk0: 5799a 168872i bk1: 5815a 165709i bk2: 5832a 171720i bk3: 5821a 166107i bk4: 5823a 162171i bk5: 6014a 154506i bk6: 5880a 159879i bk7: 6042a 149185i bk8: 5845a 177349i bk9: 5850a 175972i bk10: 6002a 165830i bk11: 6019a 151500i bk12: 5908a 160182i bk13: 5842a 157339i bk14: 5901a 144151i bk15: 5885a 164337i 

------------------------------------------------------------------------

Row_Buffer_Locality = 0.670394
Row_Buffer_Locality_read = 0.705658
Row_Buffer_Locality_write = 0.221367
Bank_Level_Parallism = 12.029740
Bank_Level_Parallism_Col = 8.230783
Bank_Level_Parallism_Ready = 2.868848
write_to_read_ratio_blp_rw_average = 0.412980
GrpLevelPara = 3.723711 

BW Util details:
bwutil = 0.795504 
total_CMD = 550187 
util_bw = 437676 
Wasted_Col = 85723 
Wasted_Row = 980 
Idle = 25808 

BW Util Bottlenecks: 
RCDc_limit = 115359 
RCDWRc_limit = 13951 
WTRc_limit = 147056 
RTWc_limit = 331850 
CCDLc_limit = 75268 
rwq = 0 
CCDLc_limit_alone = 39513 
WTRc_limit_alone = 138796 
RTWc_limit_alone = 304355 

Commands details: 
total_CMD = 550187 
n_nop = 381485 
Read = 94278 
Write = 0 
L2_Alloc = 0 
L2_WB = 15141 
n_act = 33515 
n_pre = 33499 
n_ref = 0 
n_req = 101682 
total_req = 109419 

Dual Bus Interface Util: 
issued_total_row = 67014 
issued_total_col = 109419 
Row_Bus_Util =  0.121802 
CoL_Bus_Util = 0.198876 
Either_Row_CoL_Bus_Util = 0.306627 
Issued_on_Two_Bus_Simul_Util = 0.014052 
issued_two_Eff = 0.045826 
queue_avg = 57.363064 


dram_util_bins: 0 0 0 0 0 0 0 0 0 0
dram_eff_bins: 0 0 0 0 0 0 0 0 0 0
mrqq: max=64 avg=57.3631
Memory Partition 7: 
Cache L2_bank_014:
MSHR contents

Cache L2_bank_015:
MSHR contents

In Dram Latency Queue (total = 0): 
DRAM[7]: 16 bks, busW=2 BL=16 CL=24, tRRD=12 tCCD=4, tRCD=24 tRAS=55 tRP=24 tRC=78
n_cmd=550187 n_nop=381863 n_act=33491 n_pre=33475 n_ref_event=0 n_req=101343 n_rd=93938 n_rd_L2_A=0 n_write=0 n_wr_bk=15090 bw_util=0.7927
n_activity=524533 dram_eff=0.8314
bk0: 5822a 164833i bk1: 5814a 168907i bk2: 5879a 169923i bk3: 5882a 170049i bk4: 5931a 146545i bk5: 5902a 167954i bk6: 5895a 157817i bk7: 5914a 162004i bk8: 5846a 170011i bk9: 5797a 181772i bk10: 5909a 165934i bk11: 5937a 174228i bk12: 5843a 163403i bk13: 5799a 173573i bk14: 5848a 169603i bk15: 5920a 151840i 

------------------------------------------------------------------------

Row_Buffer_Locality = 0.669528
Row_Buffer_Locality_read = 0.705700
[...]

------------------------------------------------------------------------

Row_Buffer_Locality = 0.683637
Row_Buffer_Locality_read = 0.705648
Row_Buffer_Locality_write = 0.237269
Bank_Level_Parallism = 7.372208
Bank_Level_Parallism_Col = 5.732805
Bank_Level_Parallism_Ready = 2.548733
write_to_read_ratio_blp_rw_average = 0.274503
GrpLevelPara = 2.896139 

BW Util details:
bwutil = 0.265063 
total_CMD = 4130514 
util_bw = 1094848 
Wasted_Col = 485646 
Wasted_Row = 202547 
Idle = 2347473 

BW Util Bottlenecks: 
RCDc_limit = 548441 
RCDWRc_limit = 27749 
WTRc_limit = 231796 
RTWc_limit = 528366 
CCDLc_limit = 159082 
rwq = 0 
CCDLc_limit_alone = 105174 
WTRc_limit_alone = 219088 
RTWc_limit_alone = 487166 

Commands details: 
total_CMD = 4130514 
n_nop = 3709170 
Read = 245298 
Write = 0 
L2_Alloc = 0 
L2_WB = 28414 
n_act = 81430 
n_pre = 81414 
n_ref = 0 
n_req = 257394 
total_req = 273712 

Dual Bus Interface Util: 
issued_total_row = 162844 
issued_total_col = 273712 
Row_Bus_Util =  0.039425 
CoL_Bus_Util = 0.066266 
Either_Row_CoL_Bus_Util = 0.102008 
Issued_on_Two_Bus_Simul_Util = 0.003683 
issued_two_Eff = 0.036104 
queue_avg = 14.717503 


dram_util_bins: 0 0 0 0 0 0 0 0 0 0
dram_eff_bins: 0 0 0 0 0 0 0 0 0 0
mrqq: max=64 avg=14.7175
Memory Partition 7: 
Cache L2_bank_014:
MSHR contents

Cache L2_bank_015:
MSHR contents

In Dram Latency Queue (total = 0): 
DRAM[7]: 16 bks, busW=2 BL=16 CL=24, tRRD=12 tCCD=4, tRCD=24 tRAS=55 tRP=24 tRC=78
n_cmd=4130514 n_nop=3712104 n_act=80548 n_pre=80532 n_ref_event=0 n_req=256072 n_rd=244043 n_rd_L2_A=0 n_write=0 n_wr_bk=28344 bw_util=0.2638
n_activity=2070351 dram_eff=0.5263
bk0: 15243a 3351612i bk1: 15080a 3372064i bk2: 15441a 3357205i bk3: 15478a 3347082i bk4: 15539a 3322586i bk5: 15340a 3364854i bk6: 15199a 3363742i bk7: 15340a 3354904i bk8: 15148a 3365553i bk9: 14864a 3398231i bk10: 15310a 3360690i bk11: 15295a 3381548i bk12: 15091a 3361975i bk13: 15109a 3371723i bk14: 15282a 3356041i bk15: 15284a 3343980i 

------------------------------------------------------------------------

Row_Buffer_Locality = 0.685448
Row_Buffer_Locality_read = 0.707797
Row_Buffer_Locality_write = 0.232023
Bank_Level_Parallism = 7.287747
Bank_Level_Parallism_Col = 5.667711
Bank_Level_Parallism_Ready = 2.551746
write_to_read_ratio_blp_rw_average = 0.273339
GrpLevelPara = 2.876032 

BW Util details:
bwutil = 0.263780 
total_CMD = 4130514 
util_bw = 1089548 
Wasted_Col = 484491 
Wasted_Row = 200149 
Idle = 2356326 

BW Util Bottlenecks: 
RCDc_limit = 542993 
RCDWRc_limit = 28145 
WTRc_limit = 225572 
RTWc_limit = 525315 
CCDLc_limit = 159790 
rwq = 0 
CCDLc_limit_alone = 106127 
WTRc_limit_alone = 213487 
RTWc_limit_alone = 483737 

Commands details: 
total_CMD = 4130514 
n_nop = 3712104 
Read = 244043 
Write = 0 
L2_Alloc = 0 
L2_WB = 28344 
n_act = 80548 
n_pre = 80532 
n_ref = 0 
n_req = 256072 
total_req = 272387 

Dual Bus Interface Util: 
issued_total_row = 161080 
issued_total_col = 272387 
Row_Bus_Util =  0.038998 
CoL_Bus_Util = 0.065945 
Either_Row_CoL_Bus_Util = 0.101297 
Issued_on_Two_Bus_Simul_Util = 0.003645 
issued_two_Eff = 0.035986 
queue_avg = 14.205355 


dram_util_bins: 0 0 0 0 0 0 0 0 0 0
dram_eff_bins: 0 0 0 0 0 0 0 0 0 0
mrqq: max=64 avg=14.2054
Memory Partition 8: 
Cache L2_bank_016:
MSHR contents

Cache L2_bank_017:
MSHR contents

In Dram Latency Queue (total = 0): 
DRAM[8]: 16 bks, busW=2 BL=16 CL=24, tRRD=12 tCCD=4, tRCD=24 tRAS=55 tRP=24 tRC=78
n_cmd=4130514 n_nop=3712543 n_act=80651 n_pre=80635 n_ref_event=0 n_req=255693 n_rd=243599 n_rd_L2_A=0 n_write=0 n_wr_bk=28404 bw_util=0.2634
n_activity=2063274 dram_eff=0.5273
bk0: 14902a 3366163i bk1: 15216a 3349684i bk2: 15236a 3350063i bk3: 15314a 3324535i bk4: 15622a 3337407i bk5: 15604a 3329620i bk6: 15342a 3327549i bk7: 15406a 3337823i bk8: 15034a 3364758i bk9: 15231a 3355618i bk10: 14840a 3376220i bk11: 15160a 3348999i bk12: 15183a 3352715i bk13: 15230a 3341581i bk14: 15130a 3369154i bk15: 15149a 3356794i 

------------------------------------------------------------------------

Row_Buffer_Locality = 0.684579
Row_Buffer_Locality_read = 0.707376
Row_Buffer_Locality_write = 0.225401
Bank_Level_Parallism = 7.412209
Bank_Level_Parallism_Col = 5.746458
Bank_Level_Parallism_Ready = 2.536849
write_to_read_ratio_blp_rw_average = 0.278382
GrpLevelPara = 2.893492 

BW Util details:
bwutil = 0.263408 
total_CMD = 4130514 
util_bw = 1088012 
Wasted_Col = 480048 
Wasted_Row = 200831 
Idle = 2361623 

BW Util Bottlenecks: 
RCDc_limit = 539694 
RCDWRc_limit = 28547 
WTRc_limit = 226950 
RTWc_limit = 528856 
CCDLc_limit = 158713 
rwq = 0 
CCDLc_limit_alone = 104890 
WTRc_limit_alone = 215008 
RTWc_limit_alone = 486975 

Commands details: 
total_CMD = 4130514 
n_nop = 3712543 
Read = 243599 
Write = 0 
L2_Alloc = 0 
L2_WB = 28404 
n_act = 80651 
n_pre = 80635 
n_ref = 0 
n_req = 255693 
total_req = 272003 

Dual Bus Interface Util: 
issued_total_row = 161286 
issued_total_col = 272003 
Row_Bus_Util =  0.039047 
CoL_Bus_Util = 0.065852 
Either_Row_CoL_Bus_Util = 0.101191 
Issued_on_Two_Bus_Simul_Util = 0.003708 
issued_two_Eff = 0.036648 
queue_avg = 14.742236 


dram_util_bins: 0 0 0 0 0 0 0 0 0 0
dram_eff_bins: 0 0 0 0 0 0 0 0 0 0
mrqq: max=64 avg=14.7422
Memory Partition 9: 
Cache L2_bank_018:
MSHR contents

Cache L2_bank_019:
MSHR contents

In Dram Latency Queue (total = 0): 
DRAM[9]: 16 bks, busW=2 BL=16 CL=24, tRRD=12 tCCD=4, tRCD=24 tRAS=55 tRP=24 tRC=78
n_cmd=4130514 n_nop=3713322 n_act=80402 n_pre=80386 n_ref_event=0 n_req=255231 n_rd=243144 n_rd_L2_A=0 n_write=0 n_wr_bk=28316 bw_util=0.2629
n_activity=2073467 dram_eff=0.5237
bk0: 15128a 3378857i bk1: 15262a 3353483i bk2: 15526a 3343729i bk3: 15129a 3374179i bk4: 15534a 3342020i bk5: 15403a 3349011i bk6: 15316a 3348408i bk7: 15686a 3334817i bk8: 14884a 3390599i bk9: 14616a 3409208i bk10: 15117a 3374970i bk11: 15163a 3350021i bk12: 15096a 3384077i bk13: 15172a 3370480i bk14: 15176a 3341804i bk15: 14936a 3370771i 

------------------------------------------------------------------------

Row_Buffer_Locality = 0.684983
Row_Buffer_Locality_read = 0.707753
Row_Buffer_Locality_write = 0.226938
Bank_Level_Parallism = 7.264537
Bank_Level_Parallism_Col = 5.640500
Bank_Level_Parallism_Ready = 2.507055
write_to_read_ratio_blp_rw_average = 0.277903
GrpLevelPara = 2.876809 

BW Util details:
bwutil = 0.262883 
total_CMD = 4130514 
util_bw = 1085840 
Wasted_Col = 487072 
Wasted_Row = 201391 
Idle = 2356211 

BW Util Bottlenecks: 
RCDc_limit = 545167 
RCDWRc_limit = 28754 
WTRc_limit = 228407 
RTWc_limit = 524797 
CCDLc_limit = 159567 
rwq = 0 
CCDLc_limit_alone = 106733 
WTRc_limit_alone = 216522 
RTWc_limit_alone = 483848 

Commands details: 
total_CMD = 4130514 
n_nop = 3713322 
Read = 243144 
Write = 0 
L2_Alloc = 0 
L2_WB = 28316 
n_act = 80402 
n_pre = 80386 
n_ref = 0 
n_req = 255231 
total_req = 271460 

Dual Bus Interface Util: 
issued_total_row = 160788 
issued_total_col = 271460 
Row_Bus_Util =  0.038927 
CoL_Bus_Util = 0.065721 
Either_Row_CoL_Bus_Util = 0.101002 
Issued_on_Two_Bus_Simul_Util = 0.003645 
issued_two_Eff = 0.036089 
queue_avg = 14.201721 


dram_util_bins: 0 0 0 0 0 0 0 0 0 0
dram_eff_bins: 0 0 0 0 0 0 0 0 0 0
mrqq: max=64 avg=14.2017
Memory Partition 10: 
Cache L2_bank_020:
MSHR contents

Cache L2_bank_021:
MSHR contents

In Dram Latency Queue (total = 0): 
DRAM[10]: 16 bks, busW=2 BL=16 CL=24, tRRD=12 tCCD=4, tRCD=24 tRAS=55 tRP=24 tRC=78
n_cmd=4130514 n_nop=3713122 n_act=80182 n_pre=80166 n_ref_event=0 n_req=255943 n_rd=243865 n_rd_L2_A=0 n_write=0 n_wr_bk=28357 bw_util=0.2636
n_activity=2063293 dram_eff=0.5277
bk0: 15137a 3359803i bk1: 14997a 3381677i bk2: 15082a 3375296i bk3: 15263a 3354029i bk4: 15526a 3355079i bk5: 15506a 3347540i bk6: 15348a 3359807i bk7: 15443a 3349620i bk8: 14836a 3406263i bk9: 15073a 3367724i bk10: 15405a 3368522i bk11: 15619a 3339651i bk12: 15053a 3365291i bk13: 15347a 3348287i bk14: 15173a 3356096i bk15: 15057a 3370469i 

------------------------------------------------------------------------

Row_Buffer_Locality = 0.686719
Row_Buffer_Locality_read = 0.709651
Row_Buffer_Locality_write = 0.223713
Bank_Level_Parallism = 7.287924
Bank_Level_Parallism_Col = 5.666108
Bank_Level_Parallism_Ready = 2.540796
write_to_read_ratio_blp_rw_average = 0.273818
GrpLevelPara = 2.889178 

BW Util details:
bwutil = 0.263620 
total_CMD = 4130514 
util_bw = 1088888 
Wasted_Col = 479109 
Wasted_Row = 199825 
Idle = 2362692 

BW Util Bottlenecks: 
RCDc_limit = 537669 
RCDWRc_limit = 28472 
WTRc_limit = 231601 
RTWc_limit = 519664 
CCDLc_limit = 158115 
rwq = 0 
CCDLc_limit_alone = 104738 
WTRc_limit_alone = 219517 
RTWc_limit_alone = 478371 

Commands details: 
total_CMD = 4130514 
n_nop = 3713122 
Read = 243865 
Write = 0 
L2_Alloc = 0 
L2_WB = 28357 
n_act = 80182 
n_pre = 80166 
n_ref = 0 
n_req = 255943 
total_req = 272222 

Dual Bus Interface Util: 
issued_total_row = 160348 
issued_total_col = 272222 
Row_Bus_Util =  0.038820 
CoL_Bus_Util = 0.065905 
Either_Row_CoL_Bus_Util = 0.101051 
Issued_on_Two_Bus_Simul_Util = 0.003675 
issued_two_Eff = 0.036364 
queue_avg = 14.222684 


dram_util_bins: 0 0 0 0 0 0 0 0 0 0
dram_eff_bins: 0 0 0 0 0 0 0 0 0 0
mrqq: max=64 avg=14.2227
Memory Partition 11: 
Cache L2_bank_022:
MSHR contents

Cache L2_bank_023:
MSHR contents

In Dram Latency Queue (total = 0): 
DRAM[11]: 16 bks, busW=2 BL=16 CL=24, tRRD=12 tCCD=4, tRCD=24 tRAS=55 tRP=24 tRC=78
n_cmd=4130514 n_nop=3712524 n_act=80465 n_pre=80449 n_ref_event=0 n_req=256298 n_rd=244269 n_rd_L2_A=0 n_write=0 n_wr_bk=28282 bw_util=0.2639
n_activity=2068784 dram_eff=0.527
bk0: 15052a 3378852i bk1: 15110a 3362975i bk2: 15371a 3357906i bk3: 15300a 3338254i bk4: 15494a 3338361i bk5: 15578a 3347198i bk6: 15399a 3371402i bk7: 15386a 3347412i bk8: 14981a 3399568i bk9: 14852a 3397073i bk10: 15412a 3347004i bk11: 15295a 3359035i bk12: 15219a 3331137i bk13: 15230a 3357403i bk14: 15361a 3340426i bk15: 15229a 3362986i 

------------------------------------------------------------------------

Row_Buffer_Locality = 0.686049
Row_Buffer_Locality_read = 0.708461
Row_Buffer_Locality_write = 0.230942
Bank_Level_Parallism = 7.311038
Bank_Level_Parallism_Col = 5.677820
Bank_Level_Parallism_Ready = 2.544573
write_to_read_ratio_blp_rw_average = 0.272823
GrpLevelPara = 2.883886 

BW Util details:
bwutil = 0.263939 
total_CMD = 4130514 
util_bw = 1090204 
Wasted_Col = 483619 
Wasted_Row = 200480 
Idle = 2356211 

BW Util Bottlenecks: 
RCDc_limit = 544643 
RCDWRc_limit = 27740 
WTRc_limit = 230024 
RTWc_limit = 517537 
CCDLc_limit = 158409 
rwq = 0 
CCDLc_limit_alone = 105457 
WTRc_limit_alone = 217986 
RTWc_limit_alone = 476623 

Commands details: 
total_CMD = 4130514 
n_nop = 3712524 
Read = 244269 
Write = 0 
L2_Alloc = 0 
L2_WB = 28282 
n_act = 80465 
n_pre = 80449 
n_ref = 0 
n_req = 256298 
total_req = 272551 

Dual Bus Interface Util: 
issued_total_row = 160914 
issued_total_col = 272551 
Row_Bus_Util =  0.038957 
CoL_Bus_Util = 0.065985 
Either_Row_CoL_Bus_Util = 0.101196 
Issued_on_Two_Bus_Simul_Util = 0.003747 
issued_two_Eff = 0.037022 
queue_avg = 14.314775 


dram_util_bins: 0 0 0 0 0 0 0 0 0 0
dram_eff_bins: 0 0 0 0 0 0 0 0 0 0
mrqq: max=64 avg=14.3148

========= L2 cache stats =========
L2_cache_bank[0]: Access = 301277, Miss = 121783, Miss_rate = 0.404, Pending_hits = 3112, Reservation_fails = 1898
L2_cache_bank[1]: Access = 302867, Miss = 122266, Miss_rate = 0.404, Pending_hits = 767, Reservation_fails = 0
L2_cache_bank[2]: Access = 300026, Miss = 121641, Miss_rate = 0.405, Pending_hits = 750, Reservation_fails = 269
L2_cache_bank[3]: Access = 300027, Miss = 121874, Miss_rate = 0.406, Pending_hits = 849, Reservation_fails = 96
L2_cache_bank[4]: Access = 298761, Miss = 122924, Miss_rate = 0.411, Pending_hits = 973, Reservation_fails = 467
L2_cache_bank[5]: Access = 299666, Miss = 122039, Miss_rate = 0.407, Pending_hits = 866, Reservation_fails = 721
L2_cache_bank[6]: Access = 298279, Miss = 121498, Miss_rate = 0.407, Pending_hits = 747, Reservation_fails = 941
L2_cache_bank[7]: Access = 294733, Miss = 122337, Miss_rate = 0.415, Pending_hits = 819, Reservation_fails = 187
L2_cache_bank[8]: Access = 299535, Miss = 122449, Miss_rate = 0.409, Pending_hits = 3178, Reservation_fails = 817
L2_cache_bank[9]: Access = 301125, Miss = 121459, Miss_rate = 0.403, Pending_hits = 812, Reservation_fails = 388
L2_cache_bank[10]: Access = 289735, Miss = 121362, Miss_rate = 0.419, Pending_hits = 728, Reservation_fails = 423
L2_cache_bank[11]: Access = 294765, Miss = 122226, Miss_rate = 0.415, Pending_hits = 788, Reservation_fails = 184
L2_cache_bank[12]: Access = 309694, Miss = 122553, Miss_rate = 0.396, Pending_hits = 951, Reservation_fails = 1969
L2_cache_bank[13]: Access = 298465, Miss = 122745, Miss_rate = 0.411, Pending_hits = 907, Reservation_fails = 124
L2_cache_bank[14]: Access = 291999, Miss = 122253, Miss_rate = 0.419, Pending_hits = 808, Reservation_fails = 296
L2_cache_bank[15]: Access = 302442, Miss = 121790, Miss_rate = 0.403, Pending_hits = 788, Reservation_fails = 23
L2_cache_bank[16]: Access = 298896, Miss = 121289, Miss_rate = 0.406, Pending_hits = 3116, Reservation_fails = 851
L2_cache_bank[17]: Access = 296958, Miss = 122310, Miss_rate = 0.412, Pending_hits = 864, Reservation_fails = 38
L2_cache_bank[18]: Access = 296160, Miss = 121777, Miss_rate = 0.411, Pending_hits = 780, Reservation_fails = 592
L2_cache_bank[19]: Access = 308272, Miss = 121367, Miss_rate = 0.394, Pending_hits = 769, Reservation_fails = 1738
L2_cache_bank[20]: Access = 302931, Miss = 121560, Miss_rate = 0.401, Pending_hits = 749, Reservation_fails = 1009
L2_cache_bank[21]: Access = 291182, Miss = 122305, Miss_rate = 0.420, Pending_hits = 767, Reservation_fails = 803
L2_cache_bank[22]: Access = 297737, Miss = 122289, Miss_rate = 0.411, Pending_hits = 776, Reservation_fails = 28
L2_cache_bank[23]: Access = 299082, Miss = 121980, Miss_rate = 0.408, Pending_hits = 781, Reservation_fails = 266
L2_total_cache_accesses = 7174614
L2_total_cache_misses = 2928076
L2_total_cache_miss_rate = 0.4081
L2_total_cache_pending_hits = 26445
L2_total_cache_reservation_fails = 14128
L2_total_cache_breakdown:
	L2_cache_stats_breakdown[GLOBAL_ACC_R][HIT] = 3934996
	L2_cache_stats_breakdown[GLOBAL_ACC_R][HIT_RESERVED] = 26445
	L2_cache_stats_breakdown[GLOBAL_ACC_R][MISS] = 1179292
	L2_cache_stats_breakdown[GLOBAL_ACC_R][RESERVATION_FAIL] = 14128
	L2_cache_stats_breakdown[GLOBAL_ACC_R][SECTOR_MISS] = 1748784
	L2_cache_stats_breakdown[GLOBAL_ACC_R][MSHR_HIT] = 26445
	L2_cache_stats_breakdown[LOCAL_ACC_R][HIT] = 0
	L2_cache_stats_breakdown[LOCAL_ACC_R][HIT_RESERVED] = 0
	L2_cache_stats_breakdown[LOCAL_ACC_R][MISS] = 0
	L2_cache_stats_breakdown[LOCAL_ACC_R][RESERVATION_FAIL] = 0
	L2_cache_stats_breakdown[LOCAL_ACC_R][SECTOR_MISS] = 0
	L2_cache_stats_breakdown[LOCAL_ACC_R][MSHR_HIT] = 0
	L2_cache_stats_breakdown[CONST_ACC_R][HIT] = 0
	L2_cache_stats_breakdown[CONST_ACC_R][HIT_RESERVED] = 0
	L2_cache_stats_breakdown[CONST_ACC_R][MISS] = 0
	L2_cache_stats_breakdown[CONST_ACC_R][RESERVATION_FAIL] = 0
	L2_cache_stats_breakdown[CONST_ACC_R][SECTOR_MISS] = 0
	L2_cache_stats_breakdown[CONST_ACC_R][MSHR_HIT] = 0
	L2_cache_stats_breakdown[TEXTURE_ACC_R][HIT] = 0
	L2_cache_stats_breakdown[TEXTURE_ACC_R][HIT_RESERVED] = 0
	L2_cache_stats_breakdown[TEXTURE_ACC_R][MISS] = 0
	L2_cache_stats_breakdown[TEXTURE_ACC_R][RESERVATION_FAIL] = 0
	L2_cache_stats_breakdown[TEXTURE_ACC_R][SECTOR_MISS] = 0
	L2_cache_stats_breakdown[TEXTURE_ACC_R][MSHR_HIT] = 0
	L2_cache_stats_breakdown[GLOBAL_ACC_W][HIT] = 285097
	L2_cache_stats_breakdown[GLOBAL_ACC_W][HIT_RESERVED] = 0
	L2_cache_stats_breakdown[GLOBAL_ACC_W][MISS] = 0
	L2_cache_stats_breakdown[GLOBAL_ACC_W][RESERVATION_FAIL] = 0
	L2_cache_stats_breakdown[GLOBAL_ACC_W][SECTOR_MISS] = 0
	L2_cache_stats_breakdown[GLOBAL_ACC_W][MSHR_HIT] = 0
	L2_cache_stats_breakdown[LOCAL_ACC_W][HIT] = 0
	L2_cache_stats_breakdown[LOCAL_ACC_W][HIT_RESERVED] = 0
	L2_cache_stats_breakdown[LOCAL_ACC_W][MISS] = 0
	L2_cache_stats_breakdown[LOCAL_ACC_W][RESERVATION_FAIL] = 0
	L2_cache_stats_breakdown[LOCAL_ACC_W][SECTOR_MISS] = 0
	L2_cache_stats_breakdown[LOCAL_ACC_W][MSHR_HIT] = 0
	L2_cache_stats_breakdown[L1_WRBK_ACC][HIT] = 0
	L2_cache_stats_breakdown[L1_WRBK_ACC][HIT_RESERVED] = 0
	L2_cache_stats_breakdown[L1_WRBK_ACC][MISS] = 0
	L2_cache_stats_breakdown[L1_WRBK_ACC][RESERVATION_FAIL] = 0
	L2_cache_stats_breakdown[L1_WRBK_ACC][SECTOR_MISS] = 0
	L2_cache_stats_breakdown[L1_WRBK_ACC][MSHR_HIT] = 0
	L2_cache_stats_breakdown[L2_WRBK_ACC][HIT] = 0
	L2_cache_stats_breakdown[L2_WRBK_ACC][HIT_RESERVED] = 0
	L2_cache_stats_breakdown[L2_WRBK_ACC][MISS] = 0
	L2_cache_stats_breakdown[L2_WRBK_ACC][RESERVATION_FAIL] = 0
	L2_cache_stats_breakdown[L2_WRBK_ACC][SECTOR_MISS] = 0
	L2_cache_stats_breakdown[L2_WRBK_ACC][MSHR_HIT] = 0
	L2_cache_stats_breakdown[INST_ACC_R][HIT] = 0
	L2_cache_stats_breakdown[INST_ACC_R][HIT_RESERVED] = 0
	L2_cache_stats_breakdown[INST_ACC_R][MISS] = 0
	L2_cache_stats_breakdown[INST_ACC_R][RESERVATION_FAIL] = 0
	L2_cache_stats_breakdown[INST_ACC_R][SECTOR_MISS] = 0
	L2_cache_stats_breakdown[INST_ACC_R][MSHR_HIT] = 0
	L2_cache_stats_breakdown[L1_WR_ALLOC_R][HIT] = 0
	L2_cache_stats_breakdown[L1_WR_ALLOC_R][HIT_RESERVED] = 0
	L2_cache_stats_breakdown[L1_WR_ALLOC_R][MISS] = 0
	L2_cache_stats_breakdown[L1_WR_ALLOC_R][RESERVATION_FAIL] = 0
	L2_cache_stats_breakdown[L1_WR_ALLOC_R][SECTOR_MISS] = 0
	L2_cache_stats_breakdown[L1_WR_ALLOC_R][MSHR_HIT] = 0
	L2_cache_stats_breakdown[L2_WR_ALLOC_R][HIT] = 0
	L2_cache_stats_breakdown[L2_WR_ALLOC_R][HIT_RESERVED] = 0
	L2_cache_stats_breakdown[L2_WR_ALLOC_R][MISS] = 0
	L2_cache_stats_breakdown[L2_WR_ALLOC_R][RESERVATION_FAIL] = 0
	L2_cache_stats_breakdown[L2_WR_ALLOC_R][SECTOR_MISS] = 0
	L2_cache_stats_breakdown[L2_WR_ALLOC_R][MSHR_HIT] = 0
	L2_cache_stats_breakdown[GLOBAL_ACC_R][TOTAL_ACCESS] = 6889517
	L2_cache_stats_breakdown[GLOBAL_ACC_W][TOTAL_ACCESS] = 285097
L2_total_cache_reservation_fail_breakdown:
	L2_cache_stats_fail_breakdown[GLOBAL_ACC_R][MSHR_ENRTY_FAIL] = 895
	L2_cache_stats_fail_breakdown[GLOBAL_ACC_R][MSHR_MERGE_ENRTY_FAIL] = 13233
L2_cache_data_port_util = 0.109
L2_cache_fill_port_util = 0.076

icnt_total_pkts_mem_to_simt=7174614
icnt_total_pkts_simt_to_mem=7174614
LD_mem_lat_dist  0 0 0 0 0 0 0 0 0 0 0 0 0 0 0 0 0 0 0 0 0 0 0 0 0 0 0
ST_mem_lat_dist  0 0 0 0 0 0 0 0 0 0 0 0 0 0 0 0 0 0 0 0 0 0 0 0 0 0 0
----------------------------Interconnect-DETAILS--------------------------------
Req_Network_injected_packets_num = 7174614
Req_Network_cycles = 1610675
Req_Network_injected_packets_per_cycle =       4.4544 
Req_Network_conflicts_per_cycle =       2.0507
Req_Network_conflicts_per_cycle_util =       3.7620
Req_Bank_Level_Parallism =       8.1714
Req_Network_in_buffer_full_per_cycle =       0.0001
Req_Network_in_buffer_avg_util =       6.5602
Req_Network_out_buffer_full_per_cycle =       0.0000
Req_Network_out_buffer_avg_util =       3.3518

Reply_Network_injected_packets_num = 7174614
Reply_Network_cycles = 1610675
Reply_Network_injected_packets_per_cycle =        4.4544
Reply_Network_conflicts_per_cycle =        2.5340
Reply_Network_conflicts_per_cycle_util =       4.6487
Reply_Bank_Level_Parallism =       8.1717
Reply_Network_in_buffer_full_per_cycle =       0.0000
Reply_Network_in_buffer_avg_util =       2.4580
Reply_Network_out_buffer_full_per_cycle =       0.0000
Reply_Network_out_buffer_avg_util =       0.1485
----------------------------END-of-Interconnect-DETAILS-------------------------


gpgpu_simulation_time = 0 days, 2 hrs, 22 min, 10 sec (8530 sec)
gpgpu_simulation_rate = 17102 (inst/sec)
gpgpu_simulation_rate = 188 (cycle/sec)
gpgpu_silicon_slowdown = 7260638x
GPGPU-Sim: synchronize waiting for inactive GPU simulation
GPGPU-Sim API: Stream Manager State
GPGPU-Sim: detected inactive GPU simulation thread
	runtime [cuda_afforest] = 8505309.053000 ms.
Verifying...
	runtime [serial] = 388.950000 ms.
Correct
GPGPU-Sim: *** exit detected ***
