

        *** GPGPU-Sim Simulator Version 4.2.0  [build gpgpu-sim_git-commit-5e9d31b8132651796656877ecb58fde27177ba7a_modified_315.0] ***


GPGPU-Sim PTX: simulation mode 0 (can change with PTX_SIM_MODE_FUNC environment variable:
               1=functional simulation only, 0=detailed performance simulator)
GPGPU-Sim PTX: overriding embedded ptx with ptx file (PTX_SIM_USE_PTX_FILE is set)
GPGPU-Sim: Configuration options:

-save_embedded_ptx                      0 # saves ptx files embedded in binary as <n>.ptx
-keep                                   0 # keep intermediate files created by GPGPU-Sim when interfacing with external programs
-gpgpu_ptx_save_converted_ptxplus                    0 # Saved converted ptxplus to a file
-gpgpu_occupancy_sm_number                   75 # The SM number to pass to ptxas when getting register usage for computing GPU occupancy. This parameter is required in the config.
-ptx_opcode_latency_int           4,4,4,4,21 # Opcode latencies for integers <ADD,MAX,MUL,MAD,DIV,SHFL>Default 1,1,19,25,145,32
-ptx_opcode_latency_fp           4,4,4,4,39 # Opcode latencies for single precision floating points <ADD,MAX,MUL,MAD,DIV>Default 1,1,1,1,30
-ptx_opcode_latency_dp      64,64,64,64,330 # Opcode latencies for double precision floating points <ADD,MAX,MUL,MAD,DIV>Default 8,8,8,8,335
-ptx_opcode_latency_sfu                   21 # Opcode latencies for SFU instructionsDefault 8
-ptx_opcode_latency_tesnor                   64 # Opcode latencies for Tensor instructionsDefault 64
-ptx_opcode_initiation_int            2,2,2,2,2 # Opcode initiation intervals for integers <ADD,MAX,MUL,MAD,DIV,SHFL>Default 1,1,4,4,32,4
-ptx_opcode_initiation_fp            2,2,2,2,4 # Opcode initiation intervals for single precision floating points <ADD,MAX,MUL,MAD,DIV>Default 1,1,1,1,5
-ptx_opcode_initiation_dp      64,64,64,64,130 # Opcode initiation intervals for double precision floating points <ADD,MAX,MUL,MAD,DIV>Default 8,8,8,8,130
-ptx_opcode_initiation_sfu                    8 # Opcode initiation intervals for sfu instructionsDefault 8
-ptx_opcode_initiation_tensor                   64 # Opcode initiation intervals for tensor instructionsDefault 64
-cdp_latency         7200,8000,100,12000,1600 # CDP API latency <cudaStreamCreateWithFlags, cudaGetParameterBufferV2_init_perWarp, cudaGetParameterBufferV2_perKernel, cudaLaunchDeviceV2_init_perWarp, cudaLaunchDevicV2_perKernel>Default 7200,8000,100,12000,1600
-network_mode                           2 # Interconnection network mode
-inter_config_file                   mesh # Interconnection network config file
-icnt_in_buffer_limit                  512 # in_buffer_limit
-icnt_out_buffer_limit                  512 # out_buffer_limit
-icnt_subnets                           2 # subnets
-icnt_arbiter_algo                      1 # arbiter_algo
-icnt_verbose                           0 # inct_verbose
-icnt_grant_cycles                      1 # grant_cycles
-gpgpu_ptx_use_cuobjdump                    1 # Use cuobjdump to extract ptx and sass from binaries
-gpgpu_experimental_lib_support                    0 # Try to extract code from cuda libraries [Broken because of unknown cudaGetExportTable]
-checkpoint_option                      0 #  checkpointing flag (0 = no checkpoint)
-checkpoint_kernel                      1 #  checkpointing during execution of which kernel (1- 1st kernel)
-checkpoint_CTA                         0 #  checkpointing after # of CTA (< less than total CTA)
-resume_option                          0 #  resume flag (0 = no resume)
-resume_kernel                          0 #  Resume from which kernel (1= 1st kernel)
-resume_CTA                             0 #  resume from which CTA 
-checkpoint_CTA_t                       0 #  resume from which CTA 
-checkpoint_insn_Y                      0 #  resume from which CTA 
-gpgpu_ptx_convert_to_ptxplus                    0 # Convert SASS (native ISA) to ptxplus and run ptxplus
-gpgpu_ptx_force_max_capability                   75 # Force maximum compute capability
-gpgpu_ptx_inst_debug_to_file                    0 # Dump executed instructions' debug information to file
-gpgpu_ptx_inst_debug_file       inst_debug.txt # Executed instructions' debug output file
-gpgpu_ptx_inst_debug_thread_uid                    1 # Thread UID for executed instructions' debug output
-gpgpu_simd_model                       1 # 1 = post-dominator
-gpgpu_shader_core_pipeline              1024:32 # shader core pipeline config, i.e., {<nthread>:<warpsize>}
-gpgpu_tex_cache:l1  N:4:128:256,L:R:m:N:L,T:512:8,128:2 # per-shader L1 texture cache  (READ-ONLY) config  {<nsets>:<bsize>:<assoc>,<rep>:<wr>:<alloc>:<wr_alloc>,<mshr>:<N>:<merge>,<mq>:<rf>}
-gpgpu_const_cache:l1 N:128:64:8,L:R:f:N:L,S:2:64,4 # per-shader L1 constant memory cache  (READ-ONLY) config  {<nsets>:<bsize>:<assoc>,<rep>:<wr>:<alloc>:<wr_alloc>,<mshr>:<N>:<merge>,<mq>} 
-gpgpu_cache:il1     N:64:128:16,L:R:f:N:L,S:2:48,4 # shader L1 instruction cache config  {<nsets>:<bsize>:<assoc>,<rep>:<wr>:<alloc>:<wr_alloc>,<mshr>:<N>:<merge>,<mq>} 
-gpgpu_cache:dl1     S:4:128:64,L:T:m:L:L,A:256:32,16:0,32 # per-shader L1 data cache config  {<nsets>:<bsize>:<assoc>,<rep>:<wr>:<alloc>:<wr_alloc>,<mshr>:<N>:<merge>,<mq> | none}
-gpgpu_l1_cache_write_ratio                   25 # L1D write ratio
-gpgpu_l1_banks                         4 # The number of L1 cache banks
-gpgpu_l1_banks_byte_interleaving                   32 # l1 banks byte interleaving granularity
-gpgpu_l1_banks_hashing_function                    0 # l1 banks hashing function
-gpgpu_l1_latency                      32 # L1 Hit Latency
-gpgpu_smem_latency                    30 # smem Latency
-gpgpu_cache:dl1PrefL1                 none # per-shader L1 data cache config  {<nsets>:<bsize>:<assoc>,<rep>:<wr>:<alloc>:<wr_alloc>,<mshr>:<N>:<merge>,<mq> | none}
-gpgpu_cache:dl1PrefShared                 none # per-shader L1 data cache config  {<nsets>:<bsize>:<assoc>,<rep>:<wr>:<alloc>:<wr_alloc>,<mshr>:<N>:<merge>,<mq> | none}
-gpgpu_gmem_skip_L1D                    0 # global memory access skip L1D cache (implements -Xptxas -dlcm=cg, default=no skip)
-gpgpu_perfect_mem                      0 # enable perfect memory mode (no cache miss)
-n_regfile_gating_group                    4 # group of lanes that should be read/written together)
-gpgpu_clock_gated_reg_file                    0 # enable clock gated reg file for power calculations
-gpgpu_clock_gated_lanes                    0 # enable clock gated lanes for power calculations
-gpgpu_shader_registers                65536 # Number of registers per shader core. Limits number of concurrent CTAs. (default 8192)
-gpgpu_registers_per_block                65536 # Maximum number of registers per CTA. (default 8192)
-gpgpu_ignore_resources_limitation                    0 # gpgpu_ignore_resources_limitation (default 0)
-gpgpu_shader_cta                      16 # Maximum number of concurrent CTAs in shader (default 32)
-gpgpu_num_cta_barriers                   16 # Maximum number of named barriers per CTA (default 16)
-gpgpu_n_clusters                      30 # number of processing clusters
-gpgpu_n_cores_per_cluster                    1 # number of simd cores per cluster
-gpgpu_n_cluster_ejection_buffer_size                   32 # number of packets in ejection buffer
-gpgpu_n_ldst_response_buffer_size                    2 # number of response packets in ld/st unit ejection buffer
-gpgpu_shmem_per_block                49152 # Size of shared memory per thread block or CTA (default 48kB)
-gpgpu_shmem_size                   65536 # Size of shared memory per shader core (default 16kB)
-gpgpu_shmem_option                 32,64 # Option list of shared memory sizes
-gpgpu_unified_l1d_size                   96 # Size of unified data cache(L1D + shared memory) in KB
-gpgpu_adaptive_cache_config                    1 # adaptive_cache_config
-gpgpu_shmem_sizeDefault                65536 # Size of shared memory per shader core (default 16kB)
-gpgpu_shmem_size_PrefL1                16384 # Size of shared memory per shader core (default 16kB)
-gpgpu_shmem_size_PrefShared                16384 # Size of shared memory per shader core (default 16kB)
-gpgpu_shmem_num_banks                   32 # Number of banks in the shared memory in each shader core (default 16)
-gpgpu_shmem_limited_broadcast                    0 # Limit shared memory to do one broadcast per cycle (default on)
-gpgpu_shmem_warp_parts                    1 # Number of portions a warp is divided into for shared memory bank conflict check 
-gpgpu_mem_unit_ports                    1 # The number of memory transactions allowed per core cycle
-gpgpu_shmem_warp_parts                    1 # Number of portions a warp is divided into for shared memory bank conflict check 
-gpgpu_warpdistro_shader                   -1 # Specify which shader core to collect the warp size distribution from
-gpgpu_warp_issue_shader                    0 # Specify which shader core to collect the warp issue distribution from
-gpgpu_local_mem_map                    1 # Mapping from local memory space address to simulated GPU physical address space (default = enabled)
-gpgpu_num_reg_banks                    8 # Number of register banks (default = 8)
-gpgpu_reg_bank_use_warp_id                    0 # Use warp ID in mapping registers to banks (default = off)
-gpgpu_sub_core_model                    1 # Sub Core Volta/Pascal model (default = off)
-gpgpu_enable_specialized_operand_collector                    0 # enable_specialized_operand_collector
-gpgpu_operand_collector_num_units_sp                    4 # number of collector units (default = 4)
-gpgpu_operand_collector_num_units_dp                    0 # number of collector units (default = 0)
-gpgpu_operand_collector_num_units_sfu                    4 # number of collector units (default = 4)
-gpgpu_operand_collector_num_units_int                    0 # number of collector units (default = 0)
-gpgpu_operand_collector_num_units_tensor_core                    4 # number of collector units (default = 4)
-gpgpu_operand_collector_num_units_mem                    2 # number of collector units (default = 2)
-gpgpu_operand_collector_num_units_gen                    8 # number of collector units (default = 0)
-gpgpu_operand_collector_num_in_ports_sp                    1 # number of collector unit in ports (default = 1)
-gpgpu_operand_collector_num_in_ports_dp                    0 # number of collector unit in ports (default = 0)
-gpgpu_operand_collector_num_in_ports_sfu                    1 # number of collector unit in ports (default = 1)
-gpgpu_operand_collector_num_in_ports_int                    0 # number of collector unit in ports (default = 0)
-gpgpu_operand_collector_num_in_ports_tensor_core                    1 # number of collector unit in ports (default = 1)
-gpgpu_operand_collector_num_in_ports_mem                    1 # number of collector unit in ports (default = 1)
-gpgpu_operand_collector_num_in_ports_gen                    8 # number of collector unit in ports (default = 0)
-gpgpu_operand_collector_num_out_ports_sp                    1 # number of collector unit in ports (default = 1)
-gpgpu_operand_collector_num_out_ports_dp                    0 # number of collector unit in ports (default = 0)
-gpgpu_operand_collector_num_out_ports_sfu                    1 # number of collector unit in ports (default = 1)
-gpgpu_operand_collector_num_out_ports_int                    0 # number of collector unit in ports (default = 0)
-gpgpu_operand_collector_num_out_ports_tensor_core                    1 # number of collector unit in ports (default = 1)
-gpgpu_operand_collector_num_out_ports_mem                    1 # number of collector unit in ports (default = 1)
-gpgpu_operand_collector_num_out_ports_gen                    8 # number of collector unit in ports (default = 0)
-gpgpu_coalesce_arch                   75 # Coalescing arch (GT200 = 13, Fermi = 20)
-gpgpu_num_sched_per_core                    4 # Number of warp schedulers per core
-gpgpu_max_insn_issue_per_warp                    1 # Max number of instructions that can be issued per warp in one cycle by scheduler (either 1 or 2)
-gpgpu_dual_issue_diff_exec_units                    1 # should dual issue use two different execution unit resources (Default = 1)
-gpgpu_simt_core_sim_order                    1 # Select the simulation order of cores in a cluster (0=Fix, 1=Round-Robin)
-gpgpu_pipeline_widths 4,4,4,4,4,4,4,4,4,4,8,4,4 # Pipeline widths ID_OC_SP,ID_OC_DP,ID_OC_INT,ID_OC_SFU,ID_OC_MEM,OC_EX_SP,OC_EX_DP,OC_EX_INT,OC_EX_SFU,OC_EX_MEM,EX_WB,ID_OC_TENSOR_CORE,OC_EX_TENSOR_CORE
-gpgpu_tensor_core_avail                    1 # Tensor Core Available (default=0)
-gpgpu_num_sp_units                     4 # Number of SP units (default=1)
-gpgpu_num_dp_units                     4 # Number of DP units (default=0)
-gpgpu_num_int_units                    4 # Number of INT units (default=0)
-gpgpu_num_sfu_units                    4 # Number of SF units (default=1)
-gpgpu_num_tensor_core_units                    4 # Number of tensor_core units (default=1)
-gpgpu_num_mem_units                    1 # Number if ldst units (default=1) WARNING: not hooked up to anything
-gpgpu_scheduler                      lrr # Scheduler configuration: < lrr | gto | two_level_active > If two_level_active:<num_active_warps>:<inner_prioritization>:<outer_prioritization>For complete list of prioritization values see shader.h enum scheduler_prioritization_typeDefault: gto
-gpgpu_concurrent_kernel_sm                    0 # Support concurrent kernels on a SM (default = disabled)
-gpgpu_perfect_inst_const_cache                    1 # perfect inst and const cache mode, so all inst and const hits in the cache(default = disabled)
-gpgpu_inst_fetch_throughput                    4 # the number of fetched intruction per warp each cycle
-gpgpu_reg_file_port_throughput                    2 # the number ports of the register file
-specialized_unit_1         0,4,4,4,4,BRA # specialized unit config {<enabled>,<num_units>:<latency>:<initiation>,<ID_OC_SPEC>:<OC_EX_SPEC>,<NAME>}
-specialized_unit_2         0,4,4,4,4,BRA # specialized unit config {<enabled>,<num_units>:<latency>:<initiation>,<ID_OC_SPEC>:<OC_EX_SPEC>,<NAME>}
-specialized_unit_3         0,4,4,4,4,BRA # specialized unit config {<enabled>,<num_units>:<latency>:<initiation>,<ID_OC_SPEC>:<OC_EX_SPEC>,<NAME>}
-specialized_unit_4         0,4,4,4,4,BRA # specialized unit config {<enabled>,<num_units>:<latency>:<initiation>,<ID_OC_SPEC>:<OC_EX_SPEC>,<NAME>}
-specialized_unit_5         0,4,4,4,4,BRA # specialized unit config {<enabled>,<num_units>:<latency>:<initiation>,<ID_OC_SPEC>:<OC_EX_SPEC>,<NAME>}
-specialized_unit_6         0,4,4,4,4,BRA # specialized unit config {<enabled>,<num_units>:<latency>:<initiation>,<ID_OC_SPEC>:<OC_EX_SPEC>,<NAME>}
-specialized_unit_7         0,4,4,4,4,BRA # specialized unit config {<enabled>,<num_units>:<latency>:<initiation>,<ID_OC_SPEC>:<OC_EX_SPEC>,<NAME>}
-specialized_unit_8         0,4,4,4,4,BRA # specialized unit config {<enabled>,<num_units>:<latency>:<initiation>,<ID_OC_SPEC>:<OC_EX_SPEC>,<NAME>}
-gpgpu_perf_sim_memcpy                    1 # Fill the L2 cache on memcpy
-gpgpu_simple_dram_model                    0 # simple_dram_model with fixed latency and BW
-gpgpu_dram_scheduler                    1 # 0 = fifo, 1 = FR-FCFS (defaul)
-gpgpu_dram_partition_queues          64:64:64:64 # i2$:$2d:d2$:$2i
-l2_ideal                               0 # Use a ideal L2 cache that always hit
-gpgpu_cache:dl2     S:64:128:16,L:B:m:L:P,A:192:4,32:0,32 # unified banked L2 data cache config  {<nsets>:<bsize>:<assoc>,<rep>:<wr>:<alloc>:<wr_alloc>,<mshr>:<N>:<merge>,<mq>}
-gpgpu_cache:dl2_texture_only                    0 # L2 cache used for texture only
-gpgpu_n_mem                           12 # number of memory modules (e.g. memory controllers) in gpu
-gpgpu_n_sub_partition_per_mchannel                    2 # number of memory subpartition in each memory module
-gpgpu_n_mem_per_ctrlr                    1 # number of memory chips per memory controller
-gpgpu_memlatency_stat                   14 # track and display latency statistics 0x2 enables MC, 0x4 enables queue logs
-gpgpu_frfcfs_dram_sched_queue_size                   64 # 0 = unlimited (default); # entries per chip
-gpgpu_dram_return_queue_size                  192 # 0 = unlimited (default); # entries per chip
-gpgpu_dram_buswidth                    2 # default = 4 bytes (8 bytes per cycle at DDR)
-gpgpu_dram_burst_length                   16 # Burst length of each DRAM request (default = 4 data bus cycle)
-dram_data_command_freq_ratio                    4 # Frequency ratio between DRAM data bus and command bus (default = 2 times, i.e. DDR)
-gpgpu_dram_timing_opt nbk=16:CCD=4:RRD=12:RCD=24:RAS=55:RP=24:RC=78:CL=24:WL=8:CDLR=10:WR=24:nbkgrp=4:CCDL=6:RTPL=4 # DRAM timing parameters = {nbk:tCCD:tRRD:tRCD:tRAS:tRP:tRC:CL:WL:tCDLR:tWR:nbkgrp:tCCDL:tRTPL}
-gpgpu_l2_rop_latency                  194 # ROP queue latency (default 85)
-dram_latency                          96 # DRAM latency (default 30)
-dram_dual_bus_interface                    0 # dual_bus_interface (default = 0) 
-dram_bnk_indexing_policy                    0 # dram_bnk_indexing_policy (0 = normal indexing, 1 = Xoring with the higher bits) (Default = 0)
-dram_bnkgrp_indexing_policy                    1 # dram_bnkgrp_indexing_policy (0 = take higher bits, 1 = take lower bits) (Default = 0)
-dram_seperate_write_queue_enable                    0 # Seperate_Write_Queue_Enable
-dram_write_queue_size             32:28:16 # Write_Queue_Size
-dram_elimnate_rw_turnaround                    0 # elimnate_rw_turnaround i.e set tWTR and tRTW = 0
-icnt_flit_size                        40 # icnt_flit_size
-icnt_flit_size                        40 # icnt_flit_size
-mem_profiler                           0 # memory access runtime profiling (0 = not enabled)
-gpgpu_mem_addr_mapping dramid@8;00000000.00000000.00000000.00000000.0000RRRR.RRRRRRRR.RBBBCCCC.BCCSSSSS # mapping memory address to dram model {dramid@<start bit>;<memory address map>}
-gpgpu_mem_addr_test                    0 # run sweep test to check address mapping for aliased address
-gpgpu_mem_address_mask                    1 # 0 = old addressing mask, 1 = new addressing mask, 2 = new add. mask + flipped bank sel and chip sel bits
-gpgpu_memory_partition_indexing                    0 # 0 = no indexing, 1 = bitwise xoring, 2 = IPoly, 3 = custom indexing
-accelwattch_xml_file accelwattch_sass_sim.xml # AccelWattch XML file
-power_simulation_enabled                    1 # Turn on power simulator (1=On, 0=Off)
-power_per_cycle_dump                    1 # Dump detailed power output each cycle
-hw_perf_file_name            hw_perf.csv # Hardware Performance Statistics file
-hw_perf_bench_name    hw_perf_bench_name # Kernel Name in Hardware Performance Statistics file
-power_simulation_mode                    0 # Switch performance counter input for power simulation (0=Sim, 1=HW, 2=HW-Sim Hybrid)
-dvfs_enabled                           1 # Turn on DVFS for power model
-aggregate_power_stats                    0 # Accumulate power across all kernels
-accelwattch_hybrid_perfsim_L1_RH                    0 # Get L1 Read Hits for Accelwattch-Hybrid from Accel-Sim
-accelwattch_hybrid_perfsim_L1_RM                    0 # Get L1 Read Misses for Accelwattch-Hybrid from Accel-Sim
-accelwattch_hybrid_perfsim_L1_WH                    0 # Get L1 Write Hits for Accelwattch-Hybrid from Accel-Sim
-accelwattch_hybrid_perfsim_L1_WM                    0 # Get L1 Write Misses for Accelwattch-Hybrid from Accel-Sim
-accelwattch_hybrid_perfsim_L2_RH                    0 # Get L2 Read Hits for Accelwattch-Hybrid from Accel-Sim
-accelwattch_hybrid_perfsim_L2_RM                    0 # Get L2 Read Misses for Accelwattch-Hybrid from Accel-Sim
-accelwattch_hybrid_perfsim_L2_WH                    0 # Get L2 Write Hits for Accelwattch-Hybrid from Accel-Sim
-accelwattch_hybrid_perfsim_L2_WM                    0 # Get L2 Write Misses for Accelwattch-Hybrid from Accel-Sim
-accelwattch_hybrid_perfsim_CC_ACC                    0 # Get Constant Cache Acesses for Accelwattch-Hybrid from Accel-Sim
-accelwattch_hybrid_perfsim_SHARED_ACC                    0 # Get Shared Memory Acesses for Accelwattch-Hybrid from Accel-Sim
-accelwattch_hybrid_perfsim_DRAM_RD                    0 # Get DRAM Reads for Accelwattch-Hybrid from Accel-Sim
-accelwattch_hybrid_perfsim_DRAM_WR                    0 # Get DRAM Writes for Accelwattch-Hybrid from Accel-Sim
-accelwattch_hybrid_perfsim_NOC                    0 # Get Interconnect Acesses for Accelwattch-Hybrid from Accel-Sim
-accelwattch_hybrid_perfsim_PIPE_DUTY                    0 # Get Pipeline Duty Cycle Acesses for Accelwattch-Hybrid from Accel-Sim
-accelwattch_hybrid_perfsim_NUM_SM_IDLE                    0 # Get Number of Idle SMs for Accelwattch-Hybrid from Accel-Sim
-accelwattch_hybrid_perfsim_CYCLES                    0 # Get Executed Cycles for Accelwattch-Hybrid from Accel-Sim
-accelwattch_hybrid_perfsim_VOLTAGE                    0 # Get Chip Voltage for Accelwattch-Hybrid from Accel-Sim
-power_trace_enabled                    0 # produce a file for the power trace (1=On, 0=Off)
-power_trace_zlevel                     0 # Compression level of the power trace output log (0=no comp, 9=highest)
-steady_power_levels_enabled                    0 # produce a file for the steady power levels (1=On, 0=Off)
-steady_state_definition                  8:4 # allowed deviation:number of samples
-gpgpu_max_cycle                        0 # terminates gpu simulation early (0 = no limit)
-gpgpu_max_insn                         0 # terminates gpu simulation early (0 = no limit)
-gpgpu_max_cta                          0 # terminates gpu simulation early (0 = no limit)
-gpgpu_max_completed_cta                    0 # terminates gpu simulation early (0 = no limit)
-gpgpu_runtime_stat                  1000 # display runtime statistics such as dram utilization {<freq>:<flag>}
-liveness_message_freq                    1 # Minimum number of seconds between simulation liveness messages (0 = always print)
-gpgpu_compute_capability_major                    7 # Major compute capability version number
-gpgpu_compute_capability_minor                    5 # Minor compute capability version number
-gpgpu_flush_l1_cache                    1 # Flush L1 cache at the end of each kernel call
-gpgpu_flush_l2_cache                    0 # Flush L2 cache at the end of each kernel call
-gpgpu_deadlock_detect                    1 # Stop the simulation at deadlock (1=on (default), 0=off)
-gpgpu_ptx_instruction_classification                    0 # if enabled will classify ptx instruction types per kernel (Max 255 kernels now)
-gpgpu_ptx_sim_mode                     0 # Select between Performance (default) or Functional simulation (1)
-gpgpu_clock_domains 1365:1365:1365:3500.5 # Clock Domain Frequencies in MhZ {<Core Clock>:<ICNT Clock>:<L2 Clock>:<DRAM Clock>}
-gpgpu_max_concurrent_kernel                  128 # maximum kernels that can run concurrently on GPU, set this value according to max resident grids for your compute capability
-gpgpu_cflog_interval                    0 # Interval between each snapshot in control flow logger
-visualizer_enabled                     0 # Turn on visualizer output (1=On, 0=Off)
-visualizer_outputfile                 NULL # Specifies the output log file for visualizer
-visualizer_zlevel                      6 # Compression level of the visualizer output log (0=no comp, 9=highest)
-gpgpu_stack_size_limit                 1024 # GPU thread stack size
-gpgpu_heap_size_limit              8388608 # GPU malloc heap size 
-gpgpu_runtime_sync_depth_limit                    2 # GPU device runtime synchronize depth
-gpgpu_runtime_pending_launch_count_limit                 2048 # GPU device runtime pending launch count
-trace_enabled                          0 # Turn on traces
-trace_components                    none # comma seperated list of traces to enable. Complete list found in trace_streams.tup. Default none
-trace_sampling_core                    0 # The core which is printed using CORE_DPRINTF. Default 0
-trace_sampling_memory_partition                   -1 # The memory partition which is printed using MEMPART_DPRINTF. Default -1 (i.e. all)
-enable_ptx_file_line_stats                    1 # Turn on PTX source line statistic profiling. (1 = On)
-ptx_line_stats_filename gpgpu_inst_stats.txt # Output file for PTX source line statistics.
-gpgpu_kernel_launch_latency                 5000 # Kernel launch latency in cycles. Default: 0
-gpgpu_cdp_enabled                      0 # Turn on CDP
-gpgpu_TB_launch_latency                    0 # thread block launch latency in cycles. Default: 0
-mem_runtime_stat                     100 # memory access runtime profiling sampling849372315c13957bc671de4b81b61bb9  /home/pars/Documents/sim_1/cc_base
Extracting PTX file and ptxas options    1: cc_base.1.sm_75.ptx -arch=sm_75
 freq
-L1D_metrics                            0 # memory access runtime profiling for L1 data cache
-IPC_per_prof_interval                    0 # IPC per profiling interval
-instruction_monitor                    0 # Instruction monitor
-noncoal_metrics                        0 # memory access runtime profiling for shared memory
-L2_metrics                             0 # memory access runtime profiling for L2 cache
-DRAM_metrics                           0 # memory access runtime profiling for DRAM
-Shmem_metrics                          0 # memory access runtime profiling for noncoalesced accesses
-store_enable                           0 # Enable stores for memory profiling
-accumulate_stats                       0 # Accumulate stats for the memory profiling
-dump_enable                            0 # Process dump enable flag - (def = 0)
-flush_l1d                              0 # Enable flushings for L1D caches - (default = 0)
-flush_l2                               0 # Enable flushings for L2 caches - (default = 0)
-flush_dram                             0 # Enable flushings for DRAM - (default = 0)
-flush_noncoalesceds                    0 # Enable flushings for non coalesced accesses - (default = 0)
-flush_shmems                           0 # Enable flushings for shared memory accesses - (default = 0)
-error_percentage          21474836480001 # Error percentage for the flushes - (default = 1)
-dump_sampling_cycle       21474836485000 # Dump sampling frequency - (default = 5000)
-flush_acc_type                         2 # Flush access types
-monitor_sampling_cycle                 5000 # Monitoring sampling cycle - (default = 5000)
DRAM Timing Options:
nbk                                    16 # number of banks
CCD                                     4 # column to column delay
RRD                                    12 # minimal delay between activation of rows in different banks
RCD                                    24 # row to column delay
RAS                                    55 # time needed to activate row
RP                                     24 # time needed to precharge (deactivate) row
RC                                     78 # row cycle time
CDLR                                   10 # switching from write to read (changes tWTR)
WR                                     24 # last data-in to row precharge
CL                                     24 # CAS latency
WL                                      8 # Write latency
nbkgrp                                  4 # number of bank groups
CCDL                                    6 # column to column delay between accesses to different bank groups
RTPL                                    4 # read to precharge delay between accesses to different bank groups
Total number of memory sub partition = 24
addr_dec_mask[CHIP]  = 0000000000000000 	high:64 low:0
addr_dec_mask[BK]    = 0000000000007080 	high:15 low:7
addr_dec_mask[ROW]   = 000000000fff8000 	high:28 low:15
addr_dec_mask[COL]   = 0000000000000f7f 	high:12 low:0
addr_dec_mask[BURST] = 000000000000001f 	high:5 low:0
sub_partition_id_mask = 0000000000000080
GPGPU-Sim uArch: clock freqs: 1365000000.000000:1365000000.000000:1365000000.000000:3500500000.000000
GPGPU-Sim uArch: clock periods: 0.00000000073260073260:0.00000000073260073260:0.00000000073260073260:0.00000000028567347522
*** Initializing Memory Statistics ***
GPGPU-Sim uArch: performance model initialization complete.
self exe links to: /home/pars/Documents/sim_1/cc_base
self exe links to: /home/pars/Documents/sim_1/cc_base
11.0
GPGPU-Sim PTX: __cudaRegisterFatBinary, fat_cubin_handle = 1, filename=default
self exe links to: /home/pars/Documents/sim_1/cc_base
Running md5sum using "md5sum /home/pars/Documents/sim_1/cc_base "
self exe links to: /home/pars/Documents/sim_1/cc_base
Extracting specific PTX file named cc_base.1.sm_75.ptx 
GPGPU-Sim PTX: __cudaRegisterFunction _Z8shortcutiPi : hostFun 0x0x563a8875cdd1, fat_cubin_handle = 1
GPGPU-Sim PTX: Parsing cc_base.1.sm_75.ptx
GPGPU-Sim PTX: Warning -- ignoring pragma 'nounroll'
GPGPU-Sim PTX: instruction assembly for function '_Z4hookiPKmPKiPiPb'...   done.
GPGPU-Sim PTX: instruction assembly for function '_Z8shortcutiPi'...   done.
GPGPU-Sim PTX: finished parsing EMBEDDED .ptx file cc_base.1.sm_75.ptx
GPGPU-Sim PTX: loading globals with explicit initializers... 
GPGPU-Sim PTX: finished loading globals (0 bytes total).
GPGPU-Sim PTX: loading constants with explicit initializers...  done.
GPGPU-Sim PTX: Loading PTXInfo from cc_base.1.sm_75.ptx
GPGPU-Sim PTX: Kernel '_Z8shortcutiPi' : regs=12, lmem=0, smem=0, cmem=368
GPGPU-Sim PTX: Kernel '_Z4hookiPKmPKiPiPb' : regs=18, lmem=0, smem=0, cmem=392
GPGPU-Sim PTX: __cudaRegisterFunction _Z4hookiPKmPKiPiPb : hostFun 0x0x563a8875cc56, fat_cubin_handle = 1
Connected Component by Xuhao Chen
Reading (.mtx) input file ../CudaBenchmarks/gardenia/datasets/great-britain_osm.mtx
Removing redundent edges... 0 redundent edges are removed
|V| 7733822 |E| 16313034
This graph is symmetrized
Launching CUDA CC solver (30211 CTAs, 256 threads/CTA) ...
GPGPU-Sim PTX: Setting up arguments for 4 bytes starting at 0x7ffddf21031c..
GPGPU-Sim PTX: Setting up arguments for 8 bytes starting at 0x7ffddf210310..
GPGPU-Sim PTX: Setting up arguments for 8 bytes starting at 0x7ffddf210308..
GPGPU-Sim PTX: Setting up arguments for 8 bytes starting at 0x7ffddf210300..
GPGPU-Sim PTX: Setting up arguments for 8 bytes starting at 0x7ffddf2102f8..

GPGPU-Sim PTX: cudaLaunch for 0x0x563a8875cc56 (mode=performance simulation) on stream 0
GPGPU-Sim PTX: finding reconvergence points for '_Z4hookiPKmPKiPiPb'...
GPGPU-Sim PTX: Finding dominators for '_Z4hookiPKmPKiPiPb'...
GPGPU-Sim PTX: Finding immediate dominators for '_Z4hookiPKmPKiPiPb'...
GPGPU-Sim PTX: Finding postdominators for '_Z4hookiPKmPKiPiPb'...
GPGPU-Sim PTX: Finding immediate postdominators for '_Z4hookiPKmPKiPiPb'...
GPGPU-Sim PTX: pre-decoding instructions for '_Z4hookiPKmPKiPiPb'...
GPGPU-Sim PTX: reconvergence points for _Z4hookiPKmPKiPiPb...
GPGPU-Sim PTX:  1 (potential) branch divergence @  PC=0x068 (cc_base.1.sm_75.ptx:42) @%p1 bra $L__BB0_23;

GPGPU-Sim PTX:    immediate post dominator      @  PC=0x408 (cc_base.1.sm_75.ptx:201) ret;

GPGPU-Sim PTX:  2 (potential) branch divergence @  PC=0x0b8 (cc_base.1.sm_75.ptx:53) @%p2 bra $L__BB0_23;

GPGPU-Sim PTX:    immediate post dominator      @  PC=0x408 (cc_base.1.sm_75.ptx:201) ret;

GPGPU-Sim PTX:  3 (potential) branch divergence @  PC=0x0e0 (cc_base.1.sm_75.ptx:59) @%p3 bra $L__BB0_8;

GPGPU-Sim PTX:    immediate post dominator      @  PC=0x1b0 (cc_base.1.sm_75.ptx:97) not.b32 %r33, %r3;

GPGPU-Sim PTX:  4 (potential) branch divergence @  PC=0x130 (cc_base.1.sm_75.ptx:75) @%p4 bra $L__BB0_7;

GPGPU-Sim PTX:    immediate post dominator      @  PC=0x188 (cc_base.1.sm_75.ptx:90) add.s32 %r57, %r57, 1;

GPGPU-Sim PTX:  5 (potential) branch divergence @  PC=0x170 (cc_base.1.sm_75.ptx:84) @%p5 bra $L__BB0_7;

GPGPU-Sim PTX:    immediate post dominator      @  PC=0x188 (cc_base.1.sm_75.ptx:90) add.s32 %r57, %r57, 1;

GPGPU-Sim PTX:  6 (potential) branch divergence @  PC=0x1a8 (cc_base.1.sm_75.ptx:94) @%p6 bra $L__BB0_4;

GPGPU-Sim PTX:    immediate post dominator      @  PC=0x1b0 (cc_base.1.sm_75.ptx:97) not.b32 %r33, %r3;

GPGPU-Sim PTX:  7 (potential) branch divergence @  PC=0x1c8 (cc_base.1.sm_75.ptx:100) @%p7 bra $L__BB0_23;

GPGPU-Sim PTX:    immediate post dominator      @  PC=0x408 (cc_base.1.sm_75.ptx:201) ret;

GPGPU-Sim PTX:  8 (potential) branch divergence @  PC=0x210 (cc_base.1.sm_75.ptx:114) @%p8 bra $L__BB0_13;

GPGPU-Sim PTX:    immediate post dominator      @  PC=0x268 (cc_base.1.sm_75.ptx:129) ld.global.u32 %r41, [%rd42+4];

GPGPU-Sim PTX:  9 (potential) branch divergence @  PC=0x250 (cc_base.1.sm_75.ptx:123) @%p9 bra $L__BB0_13;

GPGPU-Sim PTX:    immediate post dominator      @  PC=0x268 (cc_base.1.sm_75.ptx:129) ld.global.u32 %r41, [%rd42+4];

GPGPU-Sim PTX: 10 (potential) branch divergence @  PC=0x290 (cc_base.1.sm_75.ptx:136) @%p10 bra $L__BB0_16;

GPGPU-Sim PTX:    immediate post dominator      @  PC=0x2e8 (cc_base.1.sm_75.ptx:151) ld.global.u32 %r46, [%rd42+8];

GPGPU-Sim PTX: 11 (potential) branch divergence @  PC=0x2d0 (cc_base.1.sm_75.ptx:145) @%p11 bra $L__BB0_16;

GPGPU-Sim PTX:    immediate post dominator      @  PC=0x2e8 (cc_base.1.sm_75.ptx:151) ld.global.u32 %r46, [%rd42+8];

GPGPU-Sim PTX: 12 (potential) branch divergence @  PC=0x310 (cc_base.1.sm_75.ptx:158) @%p12 bra $L__BB0_19;

GPGPU-Sim PTX:    immediate post dominator      @  PC=0x368 (cc_base.1.sm_75.ptx:173) ld.global.u32 %r51, [%rd42+12];

GPGPU-Sim PTX: 13 (potential) branch divergence @  PC=0x350 (cc_base.1.sm_75.ptx:167) @%p13 bra $L__BB0_19;

GPGPU-Sim PTX:    immediate post dominator      @  PC=0x368 (cc_base.1.sm_75.ptx:173) ld.global.u32 %r51, [%rd42+12];

GPGPU-Sim PTX: 14 (potential) branch divergence @  PC=0x390 (cc_base.1.sm_75.ptx:180) @%p14 bra $L__BB0_22;

GPGPU-Sim PTX:    immediate post dominator      @  PC=0x3e8 (cc_base.1.sm_75.ptx:195) add.s32 %r57, %r57, 4;

GPGPU-Sim PTX: 15 (potential) branch divergence @  PC=0x3d0 (cc_base.1.sm_75.ptx:189) @%p15 bra $L__BB0_22;

GPGPU-Sim PTX:    immediate post dominator      @  PC=0x3e8 (cc_base.1.sm_75.ptx:195) add.s32 %r57, %r57, 4;

GPGPU-Sim PTX: 16 (potential) branch divergence @  PC=0x400 (cc_base.1.sm_75.ptx:198) @%p16 bra $L__BB0_10;

GPGPU-Sim PTX:    immediate post dominator      @  PC=0x408 (cc_base.1.sm_75.ptx:201) ret;

GPGPU-Sim PTX: ... end of reconvergence points for _Z4hookiPKmPKiPiPb
GPGPU-Sim PTX: ... done pre-decoding instructions for '_Z4hookiPKmPKiPiPb'.
GPGPU-Sim PTX: pushing kernel '_Z4hookiPKmPKiPiPb' to stream 0, gridDim= (30211,1,1) blockDim = (256,1,1) 
GPGPU-Sim uArch: Shader 0 bind to kernel 1 '_Z4hookiPKmPKiPiPb'
GPGPU-Sim uArch: CTA/core = 4, limited by: threads
GPGPU-Sim: Reconfigure L1 cache to 64KB
GPGPU-Sim uArch: Shader 1 bind to kernel 1 '_Z4hookiPKmPKiPiPb'
GPGPU-Sim uArch: Shader 2 bind to kernel 1 '_Z4hookiPKmPKiPiPb'
GPGPU-Sim uArch: Shader 3 bind to kernel 1 '_Z4hookiPKmPKiPiPb'
GPGPU-Sim uArch: Shader 4 bind to kernel 1 '_Z4hookiPKmPKiPiPb'
GPGPU-Sim uArch: Shader 5 bind to kernel 1 '_Z4hookiPKmPKiPiPb'
GPGPU-Sim uArch: Shader 6 bind to kernel 1 '_Z4hookiPKmPKiPiPb'
GPGPU-Sim uArch: Shader 7 bind to kernel 1 '_Z4hookiPKmPKiPiPb'
GPGPU-Sim uArch: Shader 8 bind to kernel 1 '_Z4hookiPKmPKiPiPb'
GPGPU-Sim uArch: Shader 9 bind to kernel 1 '_Z4hookiPKmPKiPiPb'
GPGPU-Sim uArch: Shader 10 bind to kernel 1 '_Z4hookiPKmPKiPiPb'
GPGPU-Sim uArch: Shader 11 bind to kernel 1 '_Z4hookiPKmPKiPiPb'
GPGPU-Sim uArch: Shader 12 bind to kernel 1 '_Z4hookiPKmPKiPiPb'
GPGPU-Sim uArch: Shader 13 bind to kernel 1 '_Z4hookiPKmPKiPiPb'
GPGPU-Sim uArch: Shader 14 bind to kernel 1 '_Z4hookiPKmPKiPiPb'
GPGPU-Sim uArch: Shader 15 bind to kernel 1 '_Z4hookiPKmPKiPiPb'
GPGPU-Sim uArch: Shader 16 bind to kernel 1 '_Z4hookiPKmPKiPiPb'
GPGPU-Sim uArch: Shader 17 bind to kernel 1 '_Z4hookiPKmPKiPiPb'
GPGPU-Sim uArch: Shader 18 bind to kernel 1 '_Z4hookiPKmPKiPiPb'
GPGPU-Sim uArch: Shader 19 bind to kernel 1 '_Z4hookiPKmPKiPiPb'
GPGPU-Sim uArch: Shader 20 bind to kernel 1 '_Z4hookiPKmPKiPiPb'
GPGPU-Sim uArch: Shader 21 bind to kernel 1 '_Z4hookiPKmPKiPiPb'
GPGPU-Sim uArch: Shader 22 bind to kernel 1 '_Z4hookiPKmPKiPiPb'
GPGPU-Sim uArch: Shader 23 bind to kernel 1 '_Z4hookiPKmPKiPiPb'
GPGPU-Sim uArch: Shader 24 bind to kernel 1 '_Z4hookiPKmPKiPiPb'
GPGPU-Sim uArch: Shader 25 bind to kernel 1 '_Z4hookiPKmPKiPiPb'
GPGPU-Sim uArch: Shader 26 bind to kernel 1 '_Z4hookiPKmPKiPiPb'
GPGPU-Sim uArch: Shader 27 bind to kernel 1 '_Z4hookiPKmPKiPiPb'
GPGPU-Sim uArch: Shader 28 bind to kernel 1 '_Z4hookiPKmPKiPiPb'
GPGPU-Sim uArch: Shader 29 bind to kernel 1 '_Z4hookiPKmPKiPiPb'
Destroy streams for kernel 1: size 0
kernel_name = _Z4hookiPKmPKiPiPb 
kernel_launch_uid = 1 
gpu_sim_cycle = 1318765
gpu_sim_insn = 519995958
gpu_ipc =     394.3053
gpu_tot_sim_cycle = 1318765
gpu_tot_sim_insn = 519995958
gpu_tot_ipc =     394.3053
gpu_tot_issued_cta = 30211
gpu_occupancy = 72.4253% 
gpu_tot_occupancy = 72.4253% 
max_total_param_size = 0
gpu_stall_dramfull = 17205
gpu_stall_icnt2sh    = 0
partiton_level_parallism =       7.2712
partiton_level_parallism_total  =       7.2712
partiton_level_parallism_util =       7.3099
partiton_level_parallism_util_total  =       7.3099
L2_BW  =     317.6072 GB/Sec
L2_BW_total  =     317.6072 GB/Sec
gpu_total_sim_rate=38342

========= Core cache stats =========
L1I_cache:
	L1I_total_cache_accesses = 0
	L1I_total_cache_misses = 0
	L1I_total_cache_pending_hits = 0
	L1I_total_cache_reservation_fails = 0
L1D_cache:
	L1D_cache_core[0]: Access = 742805, Miss = 227956, Miss_rate = 0.307, Pending_hits = 79406, Reservation_fails = 121801
	L1D_cache_core[1]: Access = 740537, Miss = 227847, Miss_rate = 0.308, Pending_hits = 79453, Reservation_fails = 125789
	L1D_cache_core[2]: Access = 741907, Miss = 228319, Miss_rate = 0.308, Pending_hits = 79409, Reservation_fails = 125344
	L1D_cache_core[3]: Access = 740837, Miss = 228114, Miss_rate = 0.308, Pending_hits = 79419, Reservation_fails = 128416
	L1D_cache_core[4]: Access = 739944, Miss = 227533, Miss_rate = 0.308, Pending_hits = 78879, Reservation_fails = 125369
	L1D_cache_core[5]: Access = 742370, Miss = 228380, Miss_rate = 0.308, Pending_hits = 79512, Reservation_fails = 127062
	L1D_cache_core[6]: Access = 743318, Miss = 228538, Miss_rate = 0.307, Pending_hits = 79480, Reservation_fails = 120307
	L1D_cache_core[7]: Access = 743544, Miss = 228579, Miss_rate = 0.307, Pending_hits = 79569, Reservation_fails = 120429
	L1D_cache_core[8]: Access = 741959, Miss = 228599, Miss_rate = 0.308, Pending_hits = 79490, Reservation_fails = 123919
	L1D_cache_core[9]: Access = 736203, Miss = 226653, Miss_rate = 0.308, Pending_hits = 79268, Reservation_fails = 126065
	L1D_cache_core[10]: Access = 738113, Miss = 227480, Miss_rate = 0.308, Pending_hits = 78977, Reservation_fails = 121603
	L1D_cache_core[11]: Access = 739855, Miss = 228255, Miss_rate = 0.309, Pending_hits = 79523, Reservation_fails = 126295
	L1D_cache_core[12]: Access = 738048, Miss = 226949, Miss_rate = 0.307, Pending_hits = 79074, Reservation_fails = 124048
	L1D_cache_core[13]: Access = 737083, Miss = 226600, Miss_rate = 0.307, Pending_hits = 79234, Reservation_fails = 122615
	L1D_cache_core[14]: Access = 741302, Miss = 228428, Miss_rate = 0.308, Pending_hits = 79818, Reservation_fails = 126591
	L1D_cache_core[15]: Access = 742494, Miss = 228825, Miss_rate = 0.308, Pending_hits = 79377, Reservation_fails = 121584
	L1D_cache_core[16]: Access = 740845, Miss = 228036, Miss_rate = 0.308, Pending_hits = 79305, Reservation_fails = 126566
	L1D_cache_core[17]: Access = 743174, Miss = 228978, Miss_rate = 0.308, Pending_hits = 79217, Reservation_fails = 122919
	L1D_cache_core[18]: Access = 741219, Miss = 227479, Miss_rate = 0.307, Pending_hits = 79424, Reservation_fails = 124899
	L1D_cache_core[19]: Access = 738635, Miss = 227291, Miss_rate = 0.308, Pending_hits = 78588, Reservation_fails = 121099
	L1D_cache_core[20]: Access = 739997, Miss = 227449, Miss_rate = 0.307, Pending_hits = 79701, Reservation_fails = 125449
	L1D_cache_core[21]: Access = 739559, Miss = 228281, Miss_rate = 0.309, Pending_hits = 79205, Reservation_fails = 128426
	L1D_cache_core[22]: Access = 739966, Miss = 227574, Miss_rate = 0.308, Pending_hits = 78935, Reservation_fails = 122327
	L1D_cache_core[23]: Access = 741493, Miss = 228433, Miss_rate = 0.308, Pending_hits = 79299, Reservation_fails = 125162
	L1D_cache_core[24]: Access = 741444, Miss = 227456, Miss_rate = 0.307, Pending_hits = 79223, Reservation_fails = 123025
	L1D_cache_core[25]: Access = 740765, Miss = 227680, Miss_rate = 0.307, Pending_hits = 79137, Reservation_fails = 127161
	L1D_cache_core[26]: Access = 736112, Miss = 226561, Miss_rate = 0.308, Pending_hits = 78386, Reservation_fails = 129943
	L1D_cache_core[27]: Access = 733850, Miss = 225981, Miss_rate = 0.308, Pending_hits = 78755, Reservation_fails = 128283
	L1D_cache_core[28]: Access = 735651, Miss = 226353, Miss_rate = 0.308, Pending_hits = 78816, Reservation_fails = 127565
	L1D_cache_core[29]: Access = 744157, Miss = 228795, Miss_rate = 0.307, Pending_hits = 79944, Reservation_fails = 125370
	L1D_total_cache_accesses = 22207186
	L1D_total_cache_misses = 6833402
	L1D_total_cache_miss_rate = 0.3077
	L1D_total_cache_pending_hits = 2377823
	L1D_total_cache_reservation_fails = 3745431
	L1D_cache_data_port_util = 0.330
	L1D_cache_fill_port_util = 0.173
L1C_cache:
	L1C_total_cache_accesses = 0
	L1C_total_cache_misses = 0
	L1C_total_cache_pending_hits = 0
	L1C_total_cache_reservation_fails = 0
L1T_cache:
	L1T_total_cache_accesses = 0
	L1T_total_cache_misses = 0
	L1T_total_cache_pending_hits = 0
	L1T_total_cache_reservation_fails = 0

Total_core_cache_stats:
	Total_core_cache_stats_breakdown[GLOBAL_ACC_R][HIT] = 10240322
	Total_core_cache_stats_breakdown[GLOBAL_ACC_R][HIT_RESERVED] = 2377823
	Total_core_cache_stats_breakdown[GLOBAL_ACC_R][MISS] = 2837215
	Total_core_cache_stats_breakdown[GLOBAL_ACC_R][RESERVATION_FAIL] = 3740084
	Total_core_cache_stats_breakdown[GLOBAL_ACC_R][SECTOR_MISS] = 3996157
	Total_core_cache_stats_breakdown[GLOBAL_ACC_R][MSHR_HIT] = 2377823
	Total_core_cache_stats_breakdown[LOCAL_ACC_R][HIT] = 0
	Total_core_cache_stats_breakdown[LOCAL_ACC_R][HIT_RESERVED] = 0
	Total_core_cache_stats_breakdown[LOCAL_ACC_R][MISS] = 0
	Total_core_cache_stats_breakdown[LOCAL_ACC_R][RESERVATION_FAIL] = 0
	Total_core_cache_stats_breakdown[LOCAL_ACC_R][SECTOR_MISS] = 0
	Total_core_cache_stats_breakdown[LOCAL_ACC_R][MSHR_HIT] = 0
	Total_core_cache_stats_breakdown[CONST_ACC_R][HIT] = 0
	Total_core_cache_stats_breakdown[CONST_ACC_R][HIT_RESERVED] = 0
	Total_core_cache_stats_breakdown[CONST_ACC_R][MISS] = 0
	Total_core_cache_stats_breakdown[CONST_ACC_R][RESERVATION_FAIL] = 0
	Total_core_cache_stats_breakdown[CONST_ACC_R][SECTOR_MISS] = 0
	Total_core_cache_stats_breakdown[CONST_ACC_R][MSHR_HIT] = 0
	Total_core_cache_stats_breakdown[TEXTURE_ACC_R][HIT] = 0
	Total_core_cache_stats_breakdown[TEXTURE_ACC_R][HIT_RESERVED] = 0
	Total_core_cache_stats_breakdown[TEXTURE_ACC_R][MISS] = 0
	Total_core_cache_stats_breakdown[TEXTURE_ACC_R][RESERVATION_FAIL] = 0
	Total_core_cache_stats_breakdown[TEXTURE_ACC_R][SECTOR_MISS] = 0
	Total_core_cache_stats_breakdown[TEXTURE_ACC_R][MSHR_HIT] = 0
	Total_core_cache_stats_breakdown[GLOBAL_ACC_W][HIT] = 2755639
	Total_core_cache_stats_breakdown[GLOBAL_ACC_W][HIT_RESERVED] = 0
	Total_core_cache_stats_breakdown[GLOBAL_ACC_W][MISS] = 30
	Total_core_cache_stats_breakdown[GLOBAL_ACC_W][RESERVATION_FAIL] = 5347
	Total_core_cache_stats_breakdown[GLOBAL_ACC_W][SECTOR_MISS] = 0
	Total_core_cache_stats_breakdown[GLOBAL_ACC_W][MSHR_HIT] = 0
	Total_core_cache_stats_breakdown[LOCAL_ACC_W][HIT] = 0
	Total_core_cache_stats_breakdown[LOCAL_ACC_W][HIT_RESERVED] = 0
	Total_core_cache_stats_breakdown[LOCAL_ACC_W][MISS] = 0
	Total_core_cache_stats_breakdown[LOCAL_ACC_W][RESERVATION_FAIL] = 0
	Total_core_cache_stats_breakdown[LOCAL_ACC_W][SECTOR_MISS] = 0
	Total_core_cache_stats_breakdown[LOCAL_ACC_W][MSHR_HIT] = 0
	Total_core_cache_stats_breakdown[L1_WRBK_ACC][HIT] = 0
	Total_core_cache_stats_breakdown[L1_WRBK_ACC][HIT_RESERVED] = 0
	Total_core_cache_stats_breakdown[L1_WRBK_ACC][MISS] = 0
	Total_core_cache_stats_breakdown[L1_WRBK_ACC][RESERVATION_FAIL] = 0
	Total_core_cache_stats_breakdown[L1_WRBK_ACC][SECTOR_MISS] = 0
	Total_core_cache_stats_breakdown[L1_WRBK_ACC][MSHR_HIT] = 0
	Total_core_cache_stats_breakdown[L2_WRBK_ACC][HIT] = 0
	Total_core_cache_stats_breakdown[L2_WRBK_ACC][HIT_RESERVED] = 0
	Total_core_cache_stats_breakdown[L2_WRBK_ACC][MISS] = 0
	Total_core_cache_stats_breakdown[L2_WRBK_ACC][RESERVATION_FAIL] = 0
	Total_core_cache_stats_breakdown[L2_WRBK_ACC][SECTOR_MISS] = 0
	Total_core_cache_stats_breakdown[L2_WRBK_ACC][MSHR_HIT] = 0
	Total_core_cache_stats_breakdown[INST_ACC_R][HIT] = 0
	Total_core_cache_stats_breakdown[INST_ACC_R][HIT_RESERVED] = 0
	Total_core_cache_stats_breakdown[INST_ACC_R][MISS] = 0
	Total_core_cache_stats_breakdown[INST_ACC_R][RESERVATION_FAIL] = 0
	Total_core_cache_stats_breakdown[INST_ACC_R][SECTOR_MISS] = 0
	Total_core_cache_stats_breakdown[INST_ACC_R][MSHR_HIT] = 0
	Total_core_cache_stats_breakdown[L1_WR_ALLOC_R][HIT] = 0
	Total_core_cache_stats_breakdown[L1_WR_ALLOC_R][HIT_RESERVED] = 0
	Total_core_cache_stats_breakdown[L1_WR_ALLOC_R][MISS] = 0
	Total_core_cache_stats_breakdown[L1_WR_ALLOC_R][RESERVATION_FAIL] = 0
	Total_core_cache_stats_breakdown[L1_WR_ALLOC_R][SECTOR_MISS] = 0
	Total_core_cache_stats_breakdown[L1_WR_ALLOC_R][MSHR_HIT] = 0
	Total_core_cache_stats_breakdown[L2_WR_ALLOC_R][HIT] = 0
	Total_core_cache_stats_breakdown[L2_WR_ALLOC_R][HIT_RESERVED] = 0
	Total_core_cache_stats_breakdown[L2_WR_ALLOC_R][MISS] = 0
	Total_core_cache_stats_breakdown[L2_WR_ALLOC_R][RESERVATION_FAIL] = 0
	Total_core_cache_stats_breakdown[L2_WR_ALLOC_R][SECTOR_MISS] = 0
	Total_core_cache_stats_breakdown[L2_WR_ALLOC_R][MSHR_HIT] = 0
	Total_core_cache_stats_breakdown[GLOBAL_ACC_R][TOTAL_ACCESS] = 19451517
	Total_core_cache_stats_breakdown[GLOBAL_ACC_W][TOTAL_ACCESS] = 2755669

Total_core_cache_fail_stats:
	Total_core_cache_fail_stats_breakdown[GLOBAL_ACC_R][MISS_QUEUE_FULL] = 3272126
	Total_core_cache_fail_stats_breakdown[GLOBAL_ACC_R][MSHR_ENRTY_FAIL] = 467958
	Total_core_cache_fail_stats_breakdown[GLOBAL_ACC_W][MISS_QUEUE_FULL] = 5347
ctas_completed 30211, Shader 0 warp_id issue ditsribution:
warp_id:
0, 1, 2, 3, 4, 5, 6, 7, 8, 9, 10, 11, 12, 13, 14, 15, 16, 17, 18, 19, 20, 21, 22, 23, 24, 25, 26, 27, 28, 29, 30, 31, 
distro:
28032, 28116, 28184, 28253, 28468, 28683, 28819, 28308, 28010, 27946, 28141, 27561, 27695, 28479, 29030, 28591, 27569, 27990, 27440, 27226, 27866, 27438, 27566, 27727, 27970, 27720, 28429, 28749, 27986, 28410, 27752, 28246, 
gpgpu_n_tot_thrd_icount = 857611136
gpgpu_n_tot_w_icount = 26800348
gpgpu_n_stall_shd_mem = 4827705
gpgpu_n_mem_read_local = 0
gpgpu_n_mem_write_local = 0
gpgpu_n_mem_read_global = 6833372
gpgpu_n_mem_write_global = 2755669
gpgpu_n_mem_texture = 0
gpgpu_n_mem_const = 0
gpgpu_n_load_insn  = 66022973
gpgpu_n_store_insn = 15693232
gpgpu_n_shmem_insn = 0
gpgpu_n_sstarr_insn = 0
gpgpu_n_tex_insn = 0
gpgpu_n_const_mem_insn = 0
gpgpu_n_param_mem_insn = 38670080
gpgpu_n_shmem_bkconflict = 0
gpgpu_n_cache_bkconflict = 0
gpgpu_n_intrawarp_mshr_merge = 0
gpgpu_n_cmem_portconflict = 0
gpgpu_stall_shd_mem[c_mem][resource_stall] = 0
gpgpu_stall_shd_mem[s_mem][bk_conf] = 0
gpgpu_stall_shd_mem[gl_mem][resource_stall] = 2451444
gpgpu_stall_shd_mem[gl_mem][coal_stall] = 2376261
gpgpu_stall_shd_mem[gl_mem][data_port_stall] = 0
gpu_reg_bank_conflict_stalls = 0
Warp Occupancy Distribution:
Stall:4546398	W0_Idle:398826	W0_Scoreboard:125817316	W1:3243634	W2:1463593	W3:945632	W4:725545	W5:611123	W6:540986	W7:466478	W8:406539	W9:342437	W10:283290	W11:224783	W12:179222	W13:137102	W14:103317	W15:75419	W16:57192	W17:45716	W18:40999	W19:39363	W20:46756	W21:58992	W22:77262	W23:101602	W24:133750	W25:170416	W26:211703	W27:264255	W28:343021	W29:484645	W30:769309	W31:1488186	W32:12718081
single_issue_nums: WS0:6695395	WS1:6698647	WS2:6708707	WS3:6697599	
dual_issue_nums: WS0:0	WS1:0	WS2:0	WS3:0	
traffic_breakdown_coretomem[GLOBAL_ACC_R] = 54666976 {8:6833372,}
traffic_breakdown_coretomem[GLOBAL_ACC_W] = 110226760 {40:2755669,}
traffic_breakdown_memtocore[GLOBAL_ACC_R] = 273334880 {40:6833372,}
traffic_breakdown_memtocore[GLOBAL_ACC_W] = 22045352 {8:2755669,}
maxmflatency = 2290 
max_icnt2mem_latency = 923 
maxmrqlatency = 1836 
max_icnt2sh_latency = 177 
averagemflatency = 442 
avg_icnt2mem_latency = 55 
avg_mrq_latency = 106 
avg_icnt2sh_latency = 3 
mrq_lat_table:1152338 	105684 	175370 	339080 	721317 	1062530 	1304122 	1312159 	733868 	96861 	760 	0 	0 	0 	0 	0 	0 	0 	0 	0 	0 	0 	0 	0 	0 	0 	0 	0 	0 	0 	0 	0 	
dq_lat_table:0 	0 	0 	0 	0 	0 	0 	0 	0 	0 	0 	0 	0 	0 	0 	0 	0 	0 	0 	0 	0 	0 	0 	0 	0 	0 	0 	0 	0 	0 	0 	0 	
mf_lat_table:0 	0 	0 	0 	0 	0 	0 	2664183 	3993081 	2835143 	96633 	1 	0 	0 	0 	0 	0 	0 	0 	0 	0 	0 	0 	0 	0 	0 	0 	0 	0 	0 	0 	0 	
icnt2mem_lat_table:0 	0 	0 	0 	0 	7518144 	1804400 	213326 	44713 	8458 	0 	0 	0 	0 	0 	0 	0 	0 	0 	0 	0 	0 	0 	0 	
icnt2sh_lat_table:0 	7203087 	1520086 	558115 	231738 	67985 	7820 	210 	0 	0 	0 	0 	0 	0 	0 	0 	0 	0 	0 	0 	0 	0 	0 	0 	
mf_lat_pw_table:0 	0 	0 	0 	0 	0 	0 	1 	1163 	148 	1 	0 	0 	0 	0 	0 	0 	0 	0 	0 	0 	0 	0 	0 	0 	0 	0 	0 	0 	0 	0 	0 	
maximum concurrent accesses to same row:
dram[0]:        64        64        64        64        64        64        64        64        64        64        64        64        64        64        64        64 
dram[1]:        64        64        64        64        64        64        64        64        64        64        64        64        64        64        64        64 
dram[2]:        64        64        64        64        64        64        64        64        64        64        64        64        64        64        64        64 
dram[3]:        64        64        64        64        64        64        64        64        64        64        64        64        64        64        64        64 
dram[4]:        64        64        64        64        64        64        64        64        64        64        64        64        64        64        64        64 
dram[5]:        64        64        64        64        64        64        64        64        64        64        64        64        64        64        64        64 
dram[6]:        64        64        64        64        64        64        64        64        64        64        64        64        64        64        64        64 
dram[7]:        64        64        64        64        64        64        64        64        64        64        64        64        64        64        64        64 
dram[8]:        64        64        64        64        64        64        64        64        64        64        64        64        64        64        64        64 
dram[9]:        64        64        64        64        64        64        64        64        64        64        64        64        64        64        64        64 
dram[10]:        64        64        64        64        64        64        64        64        64        64        64        64        64        64        64        64 
dram[11]:        64        64        64        64        64        64        64        64        64        64        64        64        64        64        64        64 
maximum service time to same row:
dram[0]:      9728     10954      7721     11613      5596      5657      5780      5833      5817      5822      7161      7268      7387      7481      7693      7844 
dram[1]:     10954      8611      8881      8971      5769      5769      5832      5833      5838      5839      7361      7370      7528      7567      7762      7813 
dram[2]:     11166     11098     11706     11711      5791      5627      5792      5750      5801      5812      7311      7216      7468      7446      7748      7719 
dram[3]:     11147      8054     11790      8263      5688      5718      5771      5771      5788      5788      7235      7257      7463      7511      7729      7760 
dram[4]:      9807      8400      8746      8443      5596      5657      5781      5834      5818      5822      7216      7208      7455      7445      7713      7676 
dram[5]:     11105     11096      8969     11526      5769      5769      5832      5833      5840      5840      7322      7393      7536      7551      7850      7854 
dram[6]:     10083      8014      8399      9144      5791      5627      5792      5750      5801      5812      7266      7220      7494      7436      7789      7769 
dram[7]:      8443     11132      8760      8458      5688      5718      5771      5771      5788      5788      7227      7254      7480      7469      7774      7769 
dram[8]:      8127      9794     11625     11631      5596      5657      5781      5834      5818      5822      7191      7225      7428      7422      7700      7838 
dram[9]:      8601      8490      8603     11661      5769      5769      5832      5833      5840      5840      7308      7410      7524      7558      7945      7933 
dram[10]:     11126     11119      8577     11608      5790      5626      5791      5749      5800      5811      7307      7201      7468      7434      7852      7804 
dram[11]:      8880     11131      9129      8292      5687      5717      5770      5771      5786      5787      7204      7240      7449      7508      7765      7780 
average row accesses per activate:
dram[0]:  3.146087  3.143370  3.121039  3.125798  3.095594  3.200618  3.131950  3.170582  3.153083  3.222892  3.192101  3.154565  3.146006  3.192271  3.204625  3.200851 
dram[1]:  3.175331  3.155661  3.170830  3.206693  3.120975  3.138837  3.179962  3.146272  3.132468  3.216860  3.152110  3.150543  3.123828  3.145165  3.163201  3.163680 
dram[2]:  3.207274  3.149940  3.138784  3.160239  3.172540  3.194435  3.140213  3.176744  3.234221  3.190372  3.106504  3.169167  3.117712  3.161556  3.120880  3.154863 
dram[3]:  3.119362  3.130193  3.108716  3.186097  3.187099  3.206738  3.090178  3.132194  3.147158  3.220737  3.099164  3.147104  3.115093  3.132438  3.120240  3.157439 
dram[4]:  3.137818  3.160519  3.164043  3.159278  3.128084  3.147028  3.153587  3.172579  3.159507  3.211683  3.135324  3.172626  3.127603  3.219136  3.148421  3.166274 
dram[5]:  3.150086  3.120921  3.139232  3.153428  3.114247  3.148378  3.120962  3.158304  3.184025  3.166696  3.178990  3.220192  3.093255  3.160443  3.185765  3.178346 
dram[6]:  3.118997  3.119565  3.180173  3.220148  3.122734  3.182120  3.153520  3.139796  3.216396  3.187489  3.161259  3.131940  3.153148  3.154799  3.127771  3.189256 
dram[7]:  3.106296  3.116459  3.162007  3.167958  3.115676  3.160208  3.119090  3.198170  3.149039  3.180730  3.121352  3.113725  3.162348  3.182849  3.146919  3.112950 
dram[8]:  3.137762  3.165684  3.125694  3.153394  3.114746  3.187698  3.141919  3.152544  3.191351  3.221351  3.147770  3.101347  3.187908  3.172062  3.113598  3.215719 
dram[9]:  3.149393  3.172174  3.122975  3.160423  3.138462  3.125884  3.128262  3.123131  3.146848  3.119611  3.139145  3.162628  3.117317  3.152725  3.117119  3.131581 
dram[10]:  3.158292  3.132957  3.096522  3.130965  3.138634  3.138259  3.141535  3.194655  3.134906  3.195599  3.134617  3.175619  3.151112  3.139786  3.114105  3.155314 
dram[11]:  3.147295  3.165322  3.131053  3.127018  3.129730  3.165755  3.164790  3.145174  3.161616  3.170047  3.124615  3.122701  3.214153  3.216248  3.113567  3.135647 
average row locality = 7004089/2221406 = 3.152998
number of total memory accesses made:
dram[0]:         0         0         0         0         0         0         0         0         0         0         0         0         0         0         0         0 
dram[1]:         0         0         0         0         0         0         0         0         0         0         0         0         0         0         0         0 
dram[2]:         0         0         0         0         0         0         0         0         0         0         0         0         0         0         0         0 
dram[3]:         0         0         0         0         0         0         0         0         0         0         0         0         0         0         0         0 
dram[4]:         0         0         0         0         0         0         0         0         0         0         0         0         0         0         0         0 
dram[5]:         0         0         0         0         0         0         0         0         0         0         0         0         0         0         0         0 
dram[6]:         0         0         0         0         0         0         0         0         0         0         0         0         0         0         0         0 
dram[7]:         0         0         0         0         0         0         0         0         0         0         0         0         0         0         0         0 
dram[8]:         0         0         0         0         0         0         0         0         0         0         0         0         0         0         0         0 
dram[9]:         0         0         0         0         0         0         0         0         0         0         0         0         0         0         0         0 
dram[10]:         0         0         0         0         0         0         0         0         0         0         0         0         0         0         0         0 
dram[11]:         0         0         0         0         0         0         0         0         0         0         0         0         0         0         0         0 
total accesses: 0
min_bank_accesses = 0!
min_chip_accesses = 0!
number of total read accesses:
dram[0]:     32618     32781     32557     32712     32543     32410     32642     32570     32660     32462     32459     32525     32398     32514     32112     32262 
dram[1]:     32495     32627     32424     32593     32686     32681     32568     32600     32507     32428     32494     32519     32625     32705     32455     32560 
dram[2]:     32284     32538     32584     32580     32355     32342     32514     32327     32214     32502     32526     32527     32623     32554     32521     32602 
dram[3]:     32635     32687     32646     32465     32421     32370     32800     32752     32474     32348     32679     32642     32623     32647     32458     32525 
dram[4]:     32554     32604     32484     32513     32473     32566     32506     32540     32526     32381     32526     32567     32576     32419     32436     32386 
dram[5]:     32531     32745     32466     32592     32642     32539     32607     32502     32262     32478     32443     32128     32693     32612     32244     32447 
dram[6]:     32726     32813     32474     32388     32573     32543     32466     32629     32412     32493     32341     32592     32593     32665     32508     32414 
dram[7]:     32607     32759     32444     32450     32556     32484     32614     32395     32466     32502     32589     32759     32466     32305     32458     32713 
dram[8]:     32578     32559     32620     32574     32584     32372     32422     32636     32446     32349     32460     32798     32287     32445     32565     32245 
dram[9]:     32613     32569     32488     32547     32553     32654     32704     32731     32771     32785     32562     32695     32606     32751     32495     32612 
dram[10]:     32504     32656     32791     32735     32625     32653     32613     32526     32565     32459     32606     32456     32474     32658     32550     32511 
dram[11]:     32587     32625     32627     32607     32544     32552     32551     32679     32446     32637     32556     32626     32264     32289     32548     32593 
total dram reads = 6247331
bank skew: 32813/32112 = 1.02
chip skew: 522136/519593 = 1.00
number of total write accesses:
dram[0]:      8348      8410      8441      8490      8440      8337      8601      8545      8404      8411      8302      8443      8493      8525      8262      8291 
dram[1]:      8368      8342      8299      8293      8454      8547      8611      8721      8407      8389      8478      8528      8572      8619      8391      8506 
dram[2]:      8191      8341      8431      8389      8454      8343      8507      8439      8241      8369      8446      8539      8586      8422      8413      8393 
dram[3]:      8414      8391      8468      8320      8318      8393      8701      8645      8419      8266      8479      8494      8469      8472      8355      8392 
dram[4]:      8389      8308      8354      8334      8425      8489      8533      8503      8387      8333      8440      8528      8390      8301      8374      8435 
dram[5]:      8286      8414      8356      8383      8537      8485      8673      8593      8316      8376      8439      8278      8429      8448      8163      8367 
dram[6]:      8446      8376      8330      8250      8438      8455      8538      8556      8356      8453      8403      8661      8408      8518      8359      8310 
dram[7]:      8367      8406      8392      8457      8494      8461      8518      8494      8439      8397      8465      8531      8440      8327      8289      8480 
dram[8]:      8369      8399      8355      8433      8513      8439      8494      8620      8391      8308      8371      8557      8318      8396      8368      8217 
dram[9]:      8370      8342      8417      8343      8480      8558      8520      8599      8628      8607      8451      8487      8526      8547      8397      8447 
dram[10]:      8329      8523      8484      8476      8572      8572      8644      8662      8518      8390      8466      8408      8448      8525      8435      8342 
dram[11]:      8324      8306      8400      8451      8461      8475      8548      8532      8393      8458      8485      8513      8412      8341      8388      8490 
total dram writes = 1619686
bank skew: 8721/8163 = 1.07
chip skew: 135794/134504 = 1.01
average mf latency per bank:
dram[0]:        518       513       519       511       520       509       529       522       534       526       527       521       524       518       512       509
dram[1]:        505       517       511       523       508       521       519       529       519       532       511       521       515       528       507       521
dram[2]:        502       501       513       507       509       500       515       509       516       514       512       510       513       511       508       502
dram[3]:        526       520       528       518       519       515       538       527       538       526       535       527       533       521      4765       515
dram[4]:        527       514       528       515       522       515       531       523       540       530       528       525       530       515       523       511
dram[5]:        499       509       502       513       507       511       514       519       513       524       514       512       510       522       496       511
dram[6]:        507       505       510       507       509       506       524       515       526       519       518       514       512       510       504       502
dram[7]:        501       506       511       510       507       512       513       518       514       519       512       517       508       511       499       510
dram[8]:        512       503       519       509       517       501       520       518       526       514       516       514       515       507       509       500
dram[9]:        515       526       516       532       514       528       523       538       537       546       516       541       522       538       512       524
dram[10]:        516       507       525       519       522       513       532       528       534       522       525       515       521       517       514       504
dram[11]:        501       506       503       509       502       506       511       511       511       519       511       516       509       515       505       504
maximum mf latency per bank:
dram[0]:       1529      1648      1681      1952      1546      1667      1807      1728      1705      1978      1600      1627      1524      1588      1698      1808
dram[1]:       1646      1685      1581      1659      1848      1746      1764      1788      1805      2023      1863      1711      1692      2007      1592      2020
dram[2]:       1505      1487      1750      1615      1568      1570      1422      1458      1508      1747      1417      1478      1584      1591      1564      1456
dram[3]:       1648      1976      2290      1503      1736      1607      1638      1717      1572      1732      1470      1754      1571      1771      1661      1777
dram[4]:       1522      1541      1616      1672      1778      1622      1641      1642      1713      1939      1560      1621      1495      1540      1571      1644
dram[5]:       1416      1516      1679      1682      1722      1737      1670      1797      1639      1808      1576      1754      1465      1450      1393      1957
dram[6]:       1538      1690      1549      1657      1814      1557      1620      1442      1640      1870      1705      1443      1468      1557      1546      1702
dram[7]:       1629      1836      1669      1641      1722      1652      1883      1985      1510      1585      1673      1735      1578      1642      1742      1604
dram[8]:       1513      1869      1523      1824      1746      1639      1570      1579      1689      1946      1513      1881      1575      1576      1544      1685
dram[9]:       1711      1517      1744      1604      1698      1837      1629      1700      1734      1932      1653      1541      1588      1773      1465      1762
dram[10]:       1621      1643      1744      1644      1627      1892      1573      1549      1662      1750      1630      1475      1629      1508      1726      1666
dram[11]:       1640      1489      1738      1960      1653      1776      1585      1681      1780      1495      1484      1692      1490      1688      1662      1709

Number of Memory Banks Accessed per Memory Operation per Warp (from 0):
0	0	0	0	0	0	0	0	0	0	0	0	0	0	0	0	0	0	0	0	0	0	0	0	0	0	0	0	0	0	0	0	0	0	0	0	0	0	0	0	0	0	0	0	0	0	0	0	0	0	0	0	0	0	0	0	0	0	0	0	0	0	0	0	0	0	0	0	0	0	0	0	0	0	0	0	0	0	0	0	0	0	0	0	0	0	0	0	0	0	0	0	0	0	0	0	0	0	0	0	0	0	0	0	0	0	0	0	0	0	0	0	0	0	0	0	0	0	0	0	0	0	0	0	0	0	0	0	0	0	0	0	0	0	0	0	0	0	0	0	0	0	0	0	0	0	0	0	0	0	0	0	0	0	0	0	0	0	0	0	0	0	0	0	0	0	0	0	0	0	0	0	0	0	0	0	0	0	0	0	0	0	0	0	0	0	0	0	0	0	0	0	
Average # of Memory Banks Accessed per Memory Operation per Warp=-nan

position of mrq chosen
0	0	0	0	0	0	0	0	0	0	0	0	0	0	0	0	0	0	0	0	0	0	0	0	0	0	0	0	0	0	0	0	0	0	0	0	0	0	0	0	0	0	0	0	0	0	0	0	0	0	0	0	0	0	0	0	0	0	0	0	0	0	0	0	

average position of mrq chosen = -nan
Memory Partition 0: 
Cache L2_bank_000:
MSHR contents

Cache L2_bank_001:
MSHR contents

In Dram Latency Queue (total = 0): 
DRAM[0]: 16 bks, busW=2 BL=16 CL=24, tRRD=12 tCCD=4, tRCD=24 tRAS=55 tRP=24 tRC=78
n_cmd=3381930 n_nop=2394252 n_act=184385 n_pre=184369 n_ref_event=0 n_req=583022 n_rd=520225 n_rd_L2_A=0 n_write=0 n_wr_bk=134743 bw_util=0.7747
n_activity=3359340 dram_eff=0.7799
bk0: 32618a 1349646i bk1: 32781a 1310770i bk2: 32557a 1329246i bk3: 32712a 1304075i bk4: 32543a 1301310i bk5: 32410a 1364620i bk6: 32642a 1303650i bk7: 32570a 1304418i bk8: 32660a 1354738i bk9: 32462a 1365041i bk10: 32459a 1387186i bk11: 32525a 1357284i bk12: 32398a 1331781i bk13: 32514a 1316231i bk14: 32112a 1402234i bk15: 32262a 1379209i 

------------------------------------------------------------------------

Row_Buffer_Locality = 0.683751
Row_Buffer_Locality_read = 0.751542
Row_Buffer_Locality_write = 0.122156
Bank_Level_Parallism = 9.897468
Bank_Level_Parallism_Col = 6.755445
Bank_Level_Parallism_Ready = 2.269484
write_to_read_ratio_blp_rw_average = 0.458859
GrpLevelPara = 3.456729 

BW Util details:
bwutil = 0.774668 
total_CMD = 3381930 
util_bw = 2619872 
Wasted_Col = 724328 
Wasted_Row = 10490 
Idle = 27240 

BW Util Bottlenecks: 
RCDc_limit = 774130 
RCDWRc_limit = 189296 
WTRc_limit = 1037080 
RTWc_limit = 2096365 
CCDLc_limit = 549457 
rwq = 0 
CCDLc_limit_alone = 311595 
WTRc_limit_alone = 981886 
RTWc_limit_alone = 1913697 

Commands details: 
total_CMD = 3381930 
n_nop = 2394252 
Read = 520225 
Write = 0 
L2_Alloc = 0 
L2_WB = 134743 
n_act = 184385 
n_pre = 184369 
n_ref = 0 
n_req = 583022 
total_req = 654968 

Dual Bus Interface Util: 
issued_total_row = 368754 
issued_total_col = 654968 
Row_Bus_Util =  0.109037 
CoL_Bus_Util = 0.193667 
Either_Row_CoL_Bus_Util = 0.292046 
Issued_on_Two_Bus_Simul_Util = 0.010658 
issued_two_Eff = 0.036494 
queue_avg = 46.885120 


dram_util_bins: 0 0 0 0 0 0 0 0 0 0
dram_eff_bins: 0 0 0 0 0 0 0 0 0 0
mrqq: max=64 avg=46.8851
Memory Partition 1: 
Cache L2_bank_002:
MSHR contents

Cache L2_bank_003:
MSHR contents

In Dram Latency Queue (total = 0): 
DRAM[1]: 16 bks, busW=2 BL=16 CL=24, tRRD=12 tCCD=4, tRCD=24 tRAS=55 tRP=24 tRC=78
n_cmd=3381930 n_nop=2391839 n_act=185016 n_pre=185000 n_ref_event=0 n_req=584384 n_rd=520967 n_rd_L2_A=0 n_write=0 n_wr_bk=135525 bw_util=0.7765
n_activity=3360223 dram_eff=0.7815
bk0: 32495a 1357108i bk1: 32627a 1333288i bk2: 32424a 1359743i bk3: 32593a 1347005i bk4: 32686a 1324617i bk5: 32681a 1302433i bk6: 32568a 1312957i bk7: 32600a 1285563i bk8: 32507a 1364648i bk9: 32428a 1378651i bk10: 32494a 1342148i bk11: 32519a 1339790i bk12: 32625a 1297230i bk13: 32705a 1284786i bk14: 32455a 1350314i bk15: 32560a 1322300i 

------------------------------------------------------------------------

Row_Buffer_Locality = 0.683407
Row_Buffer_Locality_read = 0.751696
Row_Buffer_Locality_write = 0.122412
Bank_Level_Parallism = 9.944969
Bank_Level_Parallism_Col = 1.000000
Bank_Level_Parallism_Ready = 2.263280
write_to_read_ratio_blp_rw_average = 0.000000
GrpLevelPara = 0.000000 

BW Util details:
bwutil = 0.776470 
total_CMD = 3381930 
util_bw = 2625968 
Wasted_Col = 718899 
Wasted_Row = 10135 
Idle = 26928 

BW Util Bottlenecks: 
RCDc_limit = 765428 
RCDWRc_limit = 188769 
WTRc_limit = 1021147 
RTWc_limit = 2122601 
CCDLc_limit = 552798 
rwq = 0 
CCDLc_limit_alone = 314213 
WTRc_limit_alone = 966388 
RTWc_limit_alone = 1938775 

Commands details: 
total_CMD = 3381930 
n_nop = 2391839 
Read = 520967 
Write = 0 
L2_Alloc = 0 
L2_WB = 135525 
n_act = 185016 
n_pre = 185000 
n_ref = 0 
n_req = 584384 
total_req = 656492 

Dual Bus Interface Util: 
issued_total_row = 370016 
issued_total_col = 656492 
Row_Bus_Util =  0.109410 
CoL_Bus_Util = 0.194118 
Either_Row_CoL_Bus_Util = 0.292759 
Issued_on_Two_Bus_Simul_Util = 0.010768 
issued_two_Eff = 0.036781 
queue_avg = 47.644596 


dram_util_bins: 0 0 0 0 0 0 0 0 0 0
dram_eff_bins: 0 0 0 0 0 0 0 0 0 0
mrqq: max=64 avg=47.6446
Memory Partition 2: 
Cache L2_bank_004:
MSHR contents

Cache L2_bank_005:
MSHR contents

In Dram Latency Queue (total = 0): 
DRAM[2]: 16 bks, busW=2 BL=16 CL=24, tRRD=12 tCCD=4, tRCD=24 tRAS=55 tRP=24 tRC=78
n_cmd=3381930 n_nop=2395403 n_act=184175 n_pre=184159 n_ref_event=0 n_req=582299 n_rd=519593 n_rd_L2_A=0 n_write=0 n_wr_bk=134504 bw_util=0.7736
n_activity=3360178 dram_eff=0.7786
bk0: 32284a 1402124i bk1: 32538a 1342524i bk2: 32584a 1320706i bk3: 32580a 1318966i bk4: 32355a 1363442i bk5: 32342a 1379396i bk6: 32514a 1347359i bk7: 32327a 1340762i bk8: 32214a 1434594i bk9: 32502a 1373401i bk10: 32526a 1356661i bk11: 32527a 1337400i bk12: 32623a 1308602i bk13: 32554a 1325384i bk14: 32521a 1359470i bk15: 32602a 1327878i 

------------------------------------------------------------------------

Row_Buffer_Locality = 0.683717
Row_Buffer_Locality_read = 0.751554
Row_Buffer_Locality_write = 0.121615
Bank_Level_Parallism = 9.841210
Bank_Level_Parallism_Col = 6.720316
Bank_Level_Parallism_Ready = 2.245659
write_to_read_ratio_blp_rw_average = 0.460557
GrpLevelPara = 3.455444 

BW Util details:
bwutil = 0.773638 
total_CMD = 3381930 
util_bw = 2616388 
Wasted_Col = 728584 
Wasted_Row = 10684 
Idle = 26274 

BW Util Bottlenecks: 
RCDc_limit = 775060 
RCDWRc_limit = 190378 
WTRc_limit = 1034897 
RTWc_limit = 2113660 
CCDLc_limit = 553032 
rwq = 0 
CCDLc_limit_alone = 313826 
WTRc_limit_alone = 980128 
RTWc_limit_alone = 1929223 

Commands details: 
total_CMD = 3381930 
n_nop = 2395403 
Read = 519593 
Write = 0 
L2_Alloc = 0 
L2_WB = 134504 
n_act = 184175 
n_pre = 184159 
n_ref = 0 
n_req = 582299 
total_req = 654097 

Dual Bus Interface Util: 
issued_total_row = 368334 
issued_total_col = 654097 
Row_Bus_Util =  0.108912 
CoL_Bus_Util = 0.193409 
Either_Row_CoL_Bus_Util = 0.291705 
Issued_on_Two_Bus_Simul_Util = 0.010616 
issued_two_Eff = 0.036394 
queue_avg = 45.859974 


dram_util_bins: 0 0 0 0 0 0 0 0 0 0
dram_eff_bins: 0 0 0 0 0 0 0 0 0 0
mrqq: max=64 avg=45.86
Memory Partition 3: 
Cache L2_bank_006:
MSHR contents

Cache L2_bank_007:
MSHR contents

In Dram Latency Queue (total = 0): 
DRAM[3]: 16 bks, busW=2 BL=16 CL=24, tRRD=12 tCCD=4, tRCD=24 tRAS=55 tRP=24 tRC=78
n_cmd=3381930 n_nop=2390607 n_act=185906 n_pre=185890 n_ref_event=0 n_req=584314 n_rd=521172 n_rd_L2_A=0 n_write=0 n_wr_bk=134996 bw_util=0.7761
n_activity=3360714 dram_eff=0.781
bk0: 32635a 1313860i bk1: 32687a 1299936i bk2: 32646a 1310589i bk3: 32465a 1344186i bk4: 32421a 1381865i bk5: 32370a 1346661i bk6: 32800a 1290722i bk7: 32752a 1275751i bk8: 32474a 1358716i bk9: 32348a 1383975i bk10: 32679a 1300517i bk11: 32642a 1311464i bk12: 32623a 1299463i bk13: 32647a 1296146i bk14: 32458a 1350996i bk15: 32525a 1324156i 

------------------------------------------------------------------------

Row_Buffer_Locality = 0.681846
Row_Buffer_Locality_read = 0.749752
Row_Buffer_Locality_write = 0.121346
Bank_Level_Parallism = 9.972464
Bank_Level_Parallism_Col = 6.786965
Bank_Level_Parallism_Ready = 2.270110
write_to_read_ratio_blp_rw_average = 0.462657
GrpLevelPara = 3.470765 

BW Util details:
bwutil = 0.776087 
total_CMD = 3381930 
util_bw = 2624672 
Wasted_Col = 723811 
Wasted_Row = 8510 
Idle = 24937 

BW Util Bottlenecks: 
RCDc_limit = 772976 
RCDWRc_limit = 191939 
WTRc_limit = 1036277 
RTWc_limit = 2143477 
CCDLc_limit = 553623 
rwq = 0 
CCDLc_limit_alone = 312195 
WTRc_limit_alone = 982240 
RTWc_limit_alone = 1956086 

Commands details: 
total_CMD = 3381930 
n_nop = 2390607 
Read = 521172 
Write = 0 
L2_Alloc = 0 
L2_WB = 134996 
n_act = 185906 
n_pre = 185890 
n_ref = 0 
n_req = 584314 
total_req = 656168 

Dual Bus Interface Util: 
issued_total_row = 371796 
issued_total_col = 656168 
Row_Bus_Util =  0.109936 
CoL_Bus_Util = 0.194022 
Either_Row_CoL_Bus_Util = 0.293123 
Issued_on_Two_Bus_Simul_Util = 0.010834 
issued_two_Eff = 0.036962 
queue_avg = 47.303291 


dram_util_bins: 0 0 0 0 0 0 0 0 0 0
dram_eff_bins: 0 0 0 0 0 0 0 0 0 0
mrqq: max=64 avg=47.3033
Memory Partition 4: 
Cache L2_bank_008:
MSHR contents

Cache L2_bank_009:
MSHR contents

In Dram Latency Queue (total = 0): 
DRAM[4]: 16 bks, busW=2 BL=16 CL=24, tRRD=12 tCCD=4, tRCD=24 tRAS=55 tRP=24 tRC=78
n_cmd=3381930 n_nop=2394621 n_act=184400 n_pre=184384 n_ref_event=0 n_req=582689 n_rd=520057 n_rd_L2_A=0 n_write=0 n_wr_bk=134523 bw_util=0.7742
n_activity=3359504 dram_eff=0.7794
bk0: 32554a 1326015i bk1: 32604a 1360984i bk2: 32484a 1353756i bk3: 32513a 1324338i bk4: 32473a 1341014i bk5: 32566a 1317423i bk6: 32506a 1342738i bk7: 32540a 1334399i bk8: 32526a 1384360i bk9: 32381a 1385396i bk10: 32526a 1340407i bk11: 32567a 1329209i bk12: 32576a 1332883i bk13: 32419a 1376174i bk14: 32436a 1346981i bk15: 32386a 1326474i 

------------------------------------------------------------------------

Row_Buffer_Locality = 0.683543
Row_Buffer_Locality_read = 0.751145
Row_Buffer_Locality_write = 0.122222
Bank_Level_Parallism = 9.878500
Bank_Level_Parallism_Col = 6.726808
Bank_Level_Parallism_Ready = 2.250771
write_to_read_ratio_blp_rw_average = 0.459946
GrpLevelPara = 3.453868 

BW Util details:
bwutil = 0.774209 
total_CMD = 3381930 
util_bw = 2618320 
Wasted_Col = 725853 
Wasted_Row = 10909 
Idle = 26848 

BW Util Bottlenecks: 
RCDc_limit = 774221 
RCDWRc_limit = 189381 
WTRc_limit = 1026344 
RTWc_limit = 2110866 
CCDLc_limit = 556737 
rwq = 0 
CCDLc_limit_alone = 318648 
WTRc_limit_alone = 972538 
RTWc_limit_alone = 1926583 

Commands details: 
total_CMD = 3381930 
n_nop = 2394621 
Read = 520057 
Write = 0 
L2_Alloc = 0 
L2_WB = 134523 
n_act = 184400 
n_pre = 184384 
n_ref = 0 
n_req = 582689 
total_req = 654580 

Dual Bus Interface Util: 
issued_total_row = 368784 
issued_total_col = 654580 
Row_Bus_Util =  0.109045 
CoL_Bus_Util = 0.193552 
Either_Row_CoL_Bus_Util = 0.291937 
Issued_on_Two_Bus_Simul_Util = 0.010661 
issued_two_Eff = 0.036518 
queue_avg = 46.778381 


dram_util_bins: 0 0 0 0 0 0 0 0 0 0
dram_eff_bins: 0 0 0 0 0 0 0 0 0 0
mrqq: max=64 avg=46.7784
Memory Partition 5: 
Cache L2_bank_010:
MSHR contents

Cache L2_bank_011:
MSHR contents

In Dram Latency Queue (total = 0): 
DRAM[5]: 16 bks, busW=2 BL=16 CL=24, tRRD=12 tCCD=4, tRCD=24 tRAS=55 tRP=24 tRC=78
n_cmd=3381930 n_nop=2393877 n_act=184750 n_pre=184734 n_ref_event=0 n_req=582707 n_rd=519931 n_rd_L2_A=0 n_write=0 n_wr_bk=134543 bw_util=0.7741
n_activity=3359526 dram_eff=0.7792
bk0: 32531a 1362633i bk1: 32745a 1318201i bk2: 32466a 1337007i bk3: 32592a 1324877i bk4: 32642a 1312216i bk5: 32539a 1347656i bk6: 32607a 1311997i bk7: 32502a 1304751i bk8: 32262a 1400493i bk9: 32478a 1375658i bk10: 32443a 1377670i bk11: 32128a 1424511i bk12: 32693a 1331790i bk13: 32612a 1323689i bk14: 32244a 1409483i bk15: 32447a 1371451i 

------------------------------------------------------------------------

Row_Buffer_Locality = 0.682952
Row_Buffer_Locality_read = 0.750890
Row_Buffer_Locality_write = 0.120269
Bank_Level_Parallism = 9.846656
Bank_Level_Parallism_Col = 6.697791
Bank_Level_Parallism_Ready = 2.266016
write_to_read_ratio_blp_rw_average = 0.455818
GrpLevelPara = 3.452290 

BW Util details:
bwutil = 0.774083 
total_CMD = 3381930 
util_bw = 2617896 
Wasted_Col = 726045 
Wasted_Row = 10683 
Idle = 27306 

BW Util Bottlenecks: 
RCDc_limit = 774389 
RCDWRc_limit = 190790 
WTRc_limit = 1037545 
RTWc_limit = 2067838 
CCDLc_limit = 540823 
rwq = 0 
CCDLc_limit_alone = 308276 
WTRc_limit_alone = 982721 
RTWc_limit_alone = 1890115 

Commands details: 
total_CMD = 3381930 
n_nop = 2393877 
Read = 519931 
Write = 0 
L2_Alloc = 0 
L2_WB = 134543 
n_act = 184750 
n_pre = 184734 
n_ref = 0 
n_req = 582707 
total_req = 654474 

Dual Bus Interface Util: 
issued_total_row = 369484 
issued_total_col = 654474 
Row_Bus_Util =  0.109252 
CoL_Bus_Util = 0.193521 
Either_Row_CoL_Bus_Util = 0.292157 
Issued_on_Two_Bus_Simul_Util = 0.010617 
issued_two_Eff = 0.036339 
queue_avg = 45.906345 


dram_util_bins: 0 0 0 0 0 0 0 0 0 0
dram_eff_bins: 0 0 0 0 0 0 0 0 0 0
mrqq: max=64 avg=45.9063
Memory Partition 6: 
Cache L2_bank_012:
MSHR contents

Cache L2_bank_013:
MSHR contents

In Dram Latency Queue (total = 0): 
DRAM[6]: 16 bks, busW=2 BL=16 CL=24, tRRD=12 tCCD=4, tRCD=24 tRAS=55 tRP=24 tRC=78
n_cmd=3381930 n_nop=2392909 n_act=184696 n_pre=184680 n_ref_event=0 n_req=583535 n_rd=520630 n_rd_L2_A=0 n_write=0 n_wr_bk=134857 bw_util=0.7753
n_activity=3359766 dram_eff=0.7804
bk0: 32726a 1334253i bk1: 32813a 1299282i bk2: 32474a 1340092i bk3: 32388a 1370783i bk4: 32573a 1345715i bk5: 32543a 1331964i bk6: 32466a 1340628i bk7: 32629a 1315387i bk8: 32412a 1420827i bk9: 32493a 1351467i bk10: 32341a 1384130i bk11: 32592a 1299458i bk12: 32593a 1357919i bk13: 32665a 1305927i bk14: 32508a 1355497i bk15: 32414a 1370058i 

------------------------------------------------------------------------

Row_Buffer_Locality = 0.683495
[...]
Idle = 528885 

BW Util Bottlenecks: 
RCDc_limit = 4705221 
RCDWRc_limit = 400515 
WTRc_limit = 2435667 
RTWc_limit = 4341432 
CCDLc_limit = 2246667 
rwq = 0 
CCDLc_limit_alone = 1753676 
WTRc_limit_alone = 2297007 
RTWc_limit_alone = 3987101 

Commands details: 
total_CMD = 23662583 
n_nop = 16932996 
Read = 4282915 
Write = 0 
L2_Alloc = 0 
L2_WB = 502502 
n_act = 1081941 
n_pre = 1081925 
n_ref = 0 
n_req = 4450647 
total_req = 4785417 

Dual Bus Interface Util: 
issued_total_row = 2163866 
issued_total_col = 4785417 
Row_Bus_Util =  0.091447 
CoL_Bus_Util = 0.202236 
Either_Row_CoL_Bus_Util = 0.284398 
Issued_on_Two_Bus_Simul_Util = 0.009285 
issued_two_Eff = 0.032646 
queue_avg = 31.698874 


dram_util_bins: 0 0 0 0 0 0 0 0 0 0
dram_eff_bins: 0 0 0 0 0 0 0 0 0 0
mrqq: max=64 avg=31.6989
Memory Partition 7: 
Cache L2_bank_014:
MSHR contents

Cache L2_bank_015:
MSHR contents

In Dram Latency Queue (total = 0): 
DRAM[7]: 16 bks, busW=2 BL=16 CL=24, tRRD=12 tCCD=4, tRCD=24 tRAS=55 tRP=24 tRC=78
n_cmd=23662583 n_nop=16930743 n_act=1084317 n_pre=1084301 n_ref_event=0 n_req=4450064 n_rd=4282109 n_rd_L2_A=0 n_write=0 n_wr_bk=502274 bw_util=0.8088
n_activity=23271063 dram_eff=0.8224
bk0: 268218a 13583216i bk1: 269181a 13364716i bk2: 266613a 13731065i bk3: 266394a 13675333i bk4: 267657a 13654352i bk5: 267168a 13582697i bk6: 268344a 13624867i bk7: 266476a 13675852i bk8: 267405a 13802566i bk9: 267644a 13756654i bk10: 268278a 13753466i bk11: 269374a 13575862i bk12: 266988a 13889364i bk13: 266153a 13688265i bk14: 266942a 13861319i bk15: 269274a 13403570i 

------------------------------------------------------------------------

Row_Buffer_Locality = 0.756338
Row_Buffer_Locality_read = 0.773019
Row_Buffer_Locality_write = 0.331047
Bank_Level_Parallism = 7.111260
Bank_Level_Parallism_Col = 4.843158
Bank_Level_Parallism_Ready = 2.283109
write_to_read_ratio_blp_rw_average = 0.199849
GrpLevelPara = 3.027744 

BW Util details:
bwutil = 0.808768 
total_CMD = 23662583 
util_bw = 19137532 
Wasted_Col = 3801021 
Wasted_Row = 190067 
Idle = 533963 

BW Util Bottlenecks: 
RCDc_limit = 4728983 
RCDWRc_limit = 399109 
WTRc_limit = 2433612 
RTWc_limit = 4365846 
CCDLc_limit = 2238688 
rwq = 0 
CCDLc_limit_alone = 1745722 
WTRc_limit_alone = 2296272 
RTWc_limit_alone = 4010220 

Commands details: 
total_CMD = 23662583 
n_nop = 16930743 
Read = 4282109 
Write = 0 
L2_Alloc = 0 
L2_WB = 502274 
n_act = 1084317 
n_pre = 1084301 
n_ref = 0 
n_req = 4450064 
total_req = 4784383 

Dual Bus Interface Util: 
issued_total_row = 2168618 
issued_total_col = 4784383 
Row_Bus_Util =  0.091648 
CoL_Bus_Util = 0.202192 
Either_Row_CoL_Bus_Util = 0.284493 
Issued_on_Two_Bus_Simul_Util = 0.009346 
issued_two_Eff = 0.032853 
queue_avg = 31.679911 


dram_util_bins: 0 0 0 0 0 0 0 0 0 0
dram_eff_bins: 0 0 0 0 0 0 0 0 0 0
mrqq: max=64 avg=31.6799
Memory Partition 8: 
Cache L2_bank_016:
MSHR contents

Cache L2_bank_017:
MSHR contents

In Dram Latency Queue (total = 0): 
DRAM[8]: 16 bks, busW=2 BL=16 CL=24, tRRD=12 tCCD=4, tRCD=24 tRAS=55 tRP=24 tRC=78
n_cmd=23662583 n_nop=16944802 n_act=1078866 n_pre=1078850 n_ref_event=0 n_req=4445369 n_rd=4278134 n_rd_L2_A=0 n_write=0 n_wr_bk=501969 bw_util=0.808
n_activity=23264260 dram_eff=0.8219
bk0: 267862a 13646938i bk1: 267396a 13622964i bk2: 267976a 13640081i bk3: 267464a 13553748i bk4: 268180a 13633675i bk5: 266447a 13722438i bk6: 266860a 13783548i bk7: 268431a 13530737i bk8: 267566a 13925803i bk9: 266336a 13929614i bk10: 267246a 13875913i bk11: 269678a 13575466i bk12: 265998a 14000057i bk13: 266991a 13753187i bk14: 268262a 13714568i bk15: 265441a 13855710i 

------------------------------------------------------------------------

Row_Buffer_Locality = 0.757307
Row_Buffer_Locality_read = 0.773991
Row_Buffer_Locality_write = 0.330499
Bank_Level_Parallism = 7.062069
Bank_Level_Parallism_Col = 4.817234
Bank_Level_Parallism_Ready = 2.276034
write_to_read_ratio_blp_rw_average = 0.199440
GrpLevelPara = 3.021849 

BW Util details:
bwutil = 0.808044 
total_CMD = 23662583 
util_bw = 19120412 
Wasted_Col = 3810771 
Wasted_Row = 193004 
Idle = 538396 

BW Util Bottlenecks: 
RCDc_limit = 4732236 
RCDWRc_limit = 398817 
WTRc_limit = 2435938 
RTWc_limit = 4312301 
CCDLc_limit = 2227790 
rwq = 0 
CCDLc_limit_alone = 1741277 
WTRc_limit_alone = 2300062 
RTWc_limit_alone = 3961664 

Commands details: 
total_CMD = 23662583 
n_nop = 16944802 
Read = 4278134 
Write = 0 
L2_Alloc = 0 
L2_WB = 501969 
n_act = 1078866 
n_pre = 1078850 
n_ref = 0 
n_req = 4445369 
total_req = 4780103 

Dual Bus Interface Util: 
issued_total_row = 2157716 
issued_total_col = 4780103 
Row_Bus_Util =  0.091187 
CoL_Bus_Util = 0.202011 
Either_Row_CoL_Bus_Util = 0.283899 
Issued_on_Two_Bus_Simul_Util = 0.009299 
issued_two_Eff = 0.032755 
queue_avg = 31.139334 


dram_util_bins: 0 0 0 0 0 0 0 0 0 0
dram_eff_bins: 0 0 0 0 0 0 0 0 0 0
mrqq: max=64 avg=31.1393
Memory Partition 9: 
Cache L2_bank_018:
MSHR contents

Cache L2_bank_019:
MSHR contents

In Dram Latency Queue (total = 0): 
DRAM[9]: 16 bks, busW=2 BL=16 CL=24, tRRD=12 tCCD=4, tRCD=24 tRAS=55 tRP=24 tRC=78
n_cmd=23662583 n_nop=16907221 n_act=1091264 n_pre=1091248 n_ref_event=0 n_req=4462685 n_rd=4294107 n_rd_L2_A=0 n_write=0 n_wr_bk=503323 bw_util=0.811
n_activity=23271684 dram_eff=0.8246
bk0: 268144a 13572707i bk1: 267642a 13521483i bk2: 266677a 13641606i bk3: 267649a 13466609i bk4: 267651a 13691719i bk5: 268471a 13424340i bk6: 269206a 13557380i bk7: 268968a 13410983i bk8: 269711a 13565154i bk9: 269806a 13455173i bk10: 268141a 13803582i bk11: 269010a 13607421i bk12: 268307a 13670335i bk13: 269252a 13475434i bk14: 267362a 13689595i bk15: 268110a 13480708i 

------------------------------------------------------------------------

Row_Buffer_Locality = 0.755470
Row_Buffer_Locality_read = 0.772237
Row_Buffer_Locality_write = 0.328382
Bank_Level_Parallism = 7.178869
Bank_Level_Parallism_Col = 4.879024
Bank_Level_Parallism_Ready = 2.298646
write_to_read_ratio_blp_rw_average = 0.200225
GrpLevelPara = 3.040365 

BW Util details:
bwutil = 0.810973 
total_CMD = 23662583 
util_bw = 19189720 
Wasted_Col = 3763323 
Wasted_Row = 181868 
Idle = 527672 

BW Util Bottlenecks: 
RCDc_limit = 4707739 
RCDWRc_limit = 397074 
WTRc_limit = 2434564 
RTWc_limit = 4388649 
CCDLc_limit = 2227428 
rwq = 0 
CCDLc_limit_alone = 1728924 
WTRc_limit_alone = 2297153 
RTWc_limit_alone = 4027556 

Commands details: 
total_CMD = 23662583 
n_nop = 16907221 
Read = 4294107 
Write = 0 
L2_Alloc = 0 
L2_WB = 503323 
n_act = 1091264 
n_pre = 1091248 
n_ref = 0 
n_req = 4462685 
total_req = 4797430 

Dual Bus Interface Util: 
issued_total_row = 2182512 
issued_total_col = 4797430 
Row_Bus_Util =  0.092235 
CoL_Bus_Util = 0.202743 
Either_Row_CoL_Bus_Util = 0.285487 
Issued_on_Two_Bus_Simul_Util = 0.009491 
issued_two_Eff = 0.033245 
queue_avg = 32.427773 


dram_util_bins: 0 0 0 0 0 0 0 0 0 0
dram_eff_bins: 0 0 0 0 0 0 0 0 0 0
mrqq: max=64 avg=32.4278
Memory Partition 10: 
Cache L2_bank_020:
MSHR contents

Cache L2_bank_021:
MSHR contents

In Dram Latency Queue (total = 0): 
DRAM[10]: 16 bks, busW=2 BL=16 CL=24, tRRD=12 tCCD=4, tRCD=24 tRAS=55 tRP=24 tRC=78
n_cmd=23662583 n_nop=16925159 n_act=1084930 n_pre=1084914 n_ref_event=0 n_req=4455396 n_rd=4287006 n_rd_L2_A=0 n_write=0 n_wr_bk=503285 bw_util=0.8098
n_activity=23271728 dram_eff=0.8234
bk0: 267106a 13751152i bk1: 268326a 13471516i bk2: 269163a 13475761i bk3: 268649a 13399353i bk4: 268031a 13726239i bk5: 268403a 13482623i bk6: 267756a 13738072i bk7: 267519a 13558141i bk8: 268371a 13701636i bk9: 267473a 13715565i bk10: 268367a 13764312i bk11: 267355a 13702203i bk12: 266876a 13841563i bk13: 268532a 13548649i bk14: 267524a 13698145i bk15: 267555a 13585162i 

------------------------------------------------------------------------

Row_Buffer_Locality = 0.756492
Row_Buffer_Locality_read = 0.773185
Row_Buffer_Locality_write = 0.331498
Bank_Level_Parallism = 7.128534
Bank_Level_Parallism_Col = 4.845443
Bank_Level_Parallism_Ready = 2.285371
write_to_read_ratio_blp_rw_average = 0.200259
GrpLevelPara = 3.031509 

BW Util details:
bwutil = 0.809766 
total_CMD = 23662583 
util_bw = 19161164 
Wasted_Col = 3786296 
Wasted_Row = 187269 
Idle = 527854 

BW Util Bottlenecks: 
RCDc_limit = 4697526 
RCDWRc_limit = 399299 
WTRc_limit = 2423745 
RTWc_limit = 4359691 
CCDLc_limit = 2250416 
rwq = 0 
CCDLc_limit_alone = 1753740 
WTRc_limit_alone = 2285952 
RTWc_limit_alone = 4000808 

Commands details: 
total_CMD = 23662583 
n_nop = 16925159 
Read = 4287006 
Write = 0 
L2_Alloc = 0 
L2_WB = 503285 
n_act = 1084930 
n_pre = 1084914 
n_ref = 0 
n_req = 4455396 
total_req = 4790291 

Dual Bus Interface Util: 
issued_total_row = 2169844 
issued_total_col = 4790291 
Row_Bus_Util =  0.091699 
CoL_Bus_Util = 0.202442 
Either_Row_CoL_Bus_Util = 0.284729 
Issued_on_Two_Bus_Simul_Util = 0.009412 
issued_two_Eff = 0.033056 
queue_avg = 32.105309 


dram_util_bins: 0 0 0 0 0 0 0 0 0 0
dram_eff_bins: 0 0 0 0 0 0 0 0 0 0
mrqq: max=64 avg=32.1053
Memory Partition 11: 
Cache L2_bank_022:
MSHR contents

Cache L2_bank_023:
MSHR contents

In Dram Latency Queue (total = 0): 
DRAM[11]: 16 bks, busW=2 BL=16 CL=24, tRRD=12 tCCD=4, tRCD=24 tRAS=55 tRP=24 tRC=78
n_cmd=23662583 n_nop=16939817 n_act=1079362 n_pre=1079346 n_ref_event=0 n_req=4449189 n_rd=4281502 n_rd_L2_A=0 n_write=0 n_wr_bk=502424 bw_util=0.8087
n_activity=23273733 dram_eff=0.8222
bk0: 267701a 13730502i bk1: 268056a 13525072i bk2: 267966a 13641877i bk3: 267928a 13504227i bk4: 267497a 13767029i bk5: 267751a 13553894i bk6: 267727a 13789093i bk7: 268687a 13520686i bk8: 267205a 13933663i bk9: 268438a 13703010i bk10: 267912a 13750376i bk11: 268147a 13650859i bk12: 265286a 14048204i bk13: 265877a 13774796i bk14: 267604a 13763567i bk15: 267720a 13617607i 

------------------------------------------------------------------------

Row_Buffer_Locality = 0.757403
Row_Buffer_Locality_read = 0.773993
Row_Buffer_Locality_write = 0.333824
Bank_Level_Parallism = 7.081929
Bank_Level_Parallism_Col = 4.829889
Bank_Level_Parallism_Ready = 2.283231
write_to_read_ratio_blp_rw_average = 0.199152
GrpLevelPara = 3.028026 

BW Util details:
bwutil = 0.808690 
total_CMD = 23662583 
util_bw = 19135704 
Wasted_Col = 3804689 
Wasted_Row = 191023 
Idle = 531167 

BW Util Bottlenecks: 
RCDc_limit = 4717897 
RCDWRc_limit = 399578 
WTRc_limit = 2430628 
RTWc_limit = 4353998 
CCDLc_limit = 2236026 
rwq = 0 
CCDLc_limit_alone = 1743806 
WTRc_limit_alone = 2293245 
RTWc_limit_alone = 3999161 

Commands details: 
total_CMD = 23662583 
n_nop = 16939817 
Read = 4281502 
Write = 0 
L2_Alloc = 0 
L2_WB = 502424 
n_act = 1079362 
n_pre = 1079346 
n_ref = 0 
n_req = 4449189 
total_req = 4783926 

Dual Bus Interface Util: 
issued_total_row = 2158708 
issued_total_col = 4783926 
Row_Bus_Util =  0.091229 
CoL_Bus_Util = 0.202173 
Either_Row_CoL_Bus_Util = 0.284110 
Issued_on_Two_Bus_Simul_Util = 0.009292 
issued_two_Eff = 0.032705 
queue_avg = 31.586864 


dram_util_bins: 0 0 0 0 0 0 0 0 0 0
dram_eff_bins: 0 0 0 0 0 0 0 0 0 0
mrqq: max=64 avg=31.5869

========= L2 cache stats =========
L2_cache_bank[0]: Access = 2846492, Miss = 2138670, Miss_rate = 0.751, Pending_hits = 82602, Reservation_fails = 3788
L2_cache_bank[1]: Access = 2779279, Miss = 2139606, Miss_rate = 0.770, Pending_hits = 16714, Reservation_fails = 3384
L2_cache_bank[2]: Access = 2790817, Miss = 2140622, Miss_rate = 0.767, Pending_hits = 16355, Reservation_fails = 3605
L2_cache_bank[3]: Access = 2871422, Miss = 2143579, Miss_rate = 0.747, Pending_hits = 16357, Reservation_fails = 2285
L2_cache_bank[4]: Access = 2834269, Miss = 2135567, Miss_rate = 0.753, Pending_hits = 16426, Reservation_fails = 2695
L2_cache_bank[5]: Access = 2782948, Miss = 2138143, Miss_rate = 0.768, Pending_hits = 15987, Reservation_fails = 2868
L2_cache_bank[6]: Access = 3642741, Miss = 2144518, Miss_rate = 0.589, Pending_hits = 16720, Reservation_fails = 4088
L2_cache_bank[7]: Access = 2778807, Miss = 2142321, Miss_rate = 0.771, Pending_hits = 17072, Reservation_fails = 3909
L2_cache_bank[8]: Access = 2857843, Miss = 2140473, Miss_rate = 0.749, Pending_hits = 83216, Reservation_fails = 3770
L2_cache_bank[9]: Access = 2777286, Miss = 2138744, Miss_rate = 0.770, Pending_hits = 16552, Reservation_fails = 4131
L2_cache_bank[10]: Access = 2783325, Miss = 2138694, Miss_rate = 0.768, Pending_hits = 16591, Reservation_fails = 3213
L2_cache_bank[11]: Access = 2867040, Miss = 2137962, Miss_rate = 0.746, Pending_hits = 16702, Reservation_fails = 2172
L2_cache_bank[12]: Access = 2843972, Miss = 2139446, Miss_rate = 0.752, Pending_hits = 16071, Reservation_fails = 3791
L2_cache_bank[13]: Access = 2792709, Miss = 2143475, Miss_rate = 0.768, Pending_hits = 16603, Reservation_fails = 3807
L2_cache_bank[14]: Access = 2778346, Miss = 2140449, Miss_rate = 0.770, Pending_hits = 16306, Reservation_fails = 4467
L2_cache_bank[15]: Access = 2778136, Miss = 2141667, Miss_rate = 0.771, Pending_hits = 17287, Reservation_fails = 3945
L2_cache_bank[16]: Access = 2854088, Miss = 2139951, Miss_rate = 0.750, Pending_hits = 83493, Reservation_fails = 2262
L2_cache_bank[17]: Access = 2773157, Miss = 2138187, Miss_rate = 0.771, Pending_hits = 16800, Reservation_fails = 2876
L2_cache_bank[18]: Access = 2796148, Miss = 2145205, Miss_rate = 0.767, Pending_hits = 17099, Reservation_fails = 2676
L2_cache_bank[19]: Access = 2886590, Miss = 2148912, Miss_rate = 0.744, Pending_hits = 17017, Reservation_fails = 3006
L2_cache_bank[20]: Access = 2850087, Miss = 2143198, Miss_rate = 0.752, Pending_hits = 16329, Reservation_fails = 1799
L2_cache_bank[21]: Access = 2788256, Miss = 2143819, Miss_rate = 0.769, Pending_hits = 16570, Reservation_fails = 4291
L2_cache_bank[22]: Access = 2776310, Miss = 2138904, Miss_rate = 0.770, Pending_hits = 16192, Reservation_fails = 3421
L2_cache_bank[23]: Access = 2778530, Miss = 2142610, Miss_rate = 0.771, Pending_hits = 15883, Reservation_fails = 1956
L2_total_cache_accesses = 68308598
L2_total_cache_misses = 51384722
L2_total_cache_miss_rate = 0.7522
L2_total_cache_pending_hits = 596944
L2_total_cache_reservation_fails = 78205
L2_total_cache_breakdown:
	L2_cache_stats_breakdown[GLOBAL_ACC_R][HIT] = 5304362
	L2_cache_stats_breakdown[GLOBAL_ACC_R][HIT_RESERVED] = 596941
	L2_cache_stats_breakdown[GLOBAL_ACC_R][MISS] = 18008078
	L2_cache_stats_breakdown[GLOBAL_ACC_R][RESERVATION_FAIL] = 78205
	L2_cache_stats_breakdown[GLOBAL_ACC_R][SECTOR_MISS] = 33376522
	L2_cache_stats_breakdown[GLOBAL_ACC_R][MSHR_HIT] = 596941
	L2_cache_stats_breakdown[LOCAL_ACC_R][HIT] = 0
	L2_cache_stats_breakdown[LOCAL_ACC_R][HIT_RESERVED] = 0
	L2_cache_stats_breakdown[LOCAL_ACC_R][MISS] = 0
	L2_cache_stats_breakdown[LOCAL_ACC_R][RESERVATION_FAIL] = 0
	L2_cache_stats_breakdown[LOCAL_ACC_R][SECTOR_MISS] = 0
	L2_cache_stats_breakdown[LOCAL_ACC_R][MSHR_HIT] = 0
	L2_cache_stats_breakdown[CONST_ACC_R][HIT] = 0
	L2_cache_stats_breakdown[CONST_ACC_R][HIT_RESERVED] = 0
	L2_cache_stats_breakdown[CONST_ACC_R][MISS] = 0
	L2_cache_stats_breakdown[CONST_ACC_R][RESERVATION_FAIL] = 0
	L2_cache_stats_breakdown[CONST_ACC_R][SECTOR_MISS] = 0
	L2_cache_stats_breakdown[CONST_ACC_R][MSHR_HIT] = 0
	L2_cache_stats_breakdown[TEXTURE_ACC_R][HIT] = 0
	L2_cache_stats_breakdown[TEXTURE_ACC_R][HIT_RESERVED] = 0
	L2_cache_stats_breakdown[TEXTURE_ACC_R][MISS] = 0
	L2_cache_stats_breakdown[TEXTURE_ACC_R][RESERVATION_FAIL] = 0
	L2_cache_stats_breakdown[TEXTURE_ACC_R][SECTOR_MISS] = 0
	L2_cache_stats_breakdown[TEXTURE_ACC_R][MSHR_HIT] = 0
	L2_cache_stats_breakdown[GLOBAL_ACC_W][HIT] = 11022570
	L2_cache_stats_breakdown[GLOBAL_ACC_W][HIT_RESERVED] = 3
	L2_cache_stats_breakdown[GLOBAL_ACC_W][MISS] = 92
	L2_cache_stats_breakdown[GLOBAL_ACC_W][RESERVATION_FAIL] = 0
	L2_cache_stats_breakdown[GLOBAL_ACC_W][SECTOR_MISS] = 30
	L2_cache_stats_breakdown[GLOBAL_ACC_W][MSHR_HIT] = 0
	L2_cache_stats_breakdown[LOCAL_ACC_W][HIT] = 0
	L2_cache_stats_breakdown[LOCAL_ACC_W][HIT_RESERVED] = 0
	L2_cache_stats_breakdown[LOCAL_ACC_W][MISS] = 0
	L2_cache_stats_breakdown[LOCAL_ACC_W][RESERVATION_FAIL] = 0
	L2_cache_stats_breakdown[LOCAL_ACC_W][SECTOR_MISS] = 0
	L2_cache_stats_breakdown[LOCAL_ACC_W][MSHR_HIT] = 0
	L2_cache_stats_breakdown[L1_WRBK_ACC][HIT] = 0
	L2_cache_stats_breakdown[L1_WRBK_ACC][HIT_RESERVED] = 0
	L2_cache_stats_breakdown[L1_WRBK_ACC][MISS] = 0
	L2_cache_stats_breakdown[L1_WRBK_ACC][RESERVATION_FAIL] = 0
	L2_cache_stats_breakdown[L1_WRBK_ACC][SECTOR_MISS] = 0
	L2_cache_stats_breakdown[L1_WRBK_ACC][MSHR_HIT] = 0
	L2_cache_stats_breakdown[L2_WRBK_ACC][HIT] = 0
	L2_cache_stats_breakdown[L2_WRBK_ACC][HIT_RESERVED] = 0
	L2_cache_stats_breakdown[L2_WRBK_ACC][MISS] = 0
	L2_cache_stats_breakdown[L2_WRBK_ACC][RESERVATION_FAIL] = 0
	L2_cache_stats_breakdown[L2_WRBK_ACC][SECTOR_MISS] = 0
	L2_cache_stats_breakdown[L2_WRBK_ACC][MSHR_HIT] = 0
	L2_cache_stats_breakdown[INST_ACC_R][HIT] = 0
	L2_cache_stats_breakdown[INST_ACC_R][HIT_RESERVED] = 0
	L2_cache_stats_breakdown[INST_ACC_R][MISS] = 0
	L2_cache_stats_breakdown[INST_ACC_R][RESERVATION_FAIL] = 0
	L2_cache_stats_breakdown[INST_ACC_R][SECTOR_MISS] = 0
	L2_cache_stats_breakdown[INST_ACC_R][MSHR_HIT] = 0
	L2_cache_stats_breakdown[L1_WR_ALLOC_R][HIT] = 0
	L2_cache_stats_breakdown[L1_WR_ALLOC_R][HIT_RESERVED] = 0
	L2_cache_stats_breakdown[L1_WR_ALLOC_R][MISS] = 0
	L2_cache_stats_breakdown[L1_WR_ALLOC_R][RESERVATION_FAIL] = 0
	L2_cache_stats_breakdown[L1_WR_ALLOC_R][SECTOR_MISS] = 0
	L2_cache_stats_breakdown[L1_WR_ALLOC_R][MSHR_HIT] = 0
	L2_cache_stats_breakdown[L2_WR_ALLOC_R][HIT] = 0
	L2_cache_stats_breakdown[L2_WR_ALLOC_R][HIT_RESERVED] = 0
	L2_cache_stats_breakdown[L2_WR_ALLOC_R][MISS] = 0
	L2_cache_stats_breakdown[L2_WR_ALLOC_R][RESERVATION_FAIL] = 0
	L2_cache_stats_breakdown[L2_WR_ALLOC_R][SECTOR_MISS] = 0
	L2_cache_stats_breakdown[L2_WR_ALLOC_R][MSHR_HIT] = 0
	L2_cache_stats_breakdown[GLOBAL_ACC_R][TOTAL_ACCESS] = 57285903
	L2_cache_stats_breakdown[GLOBAL_ACC_W][TOTAL_ACCESS] = 11022695
L2_total_cache_reservation_fail_breakdown:
	L2_cache_stats_fail_breakdown[GLOBAL_ACC_R][MSHR_ENRTY_FAIL] = 3473
	L2_cache_stats_fail_breakdown[GLOBAL_ACC_R][MSHR_MERGE_ENRTY_FAIL] = 74732
L2_cache_data_port_util = 0.074
L2_cache_fill_port_util = 0.232

icnt_total_pkts_mem_to_simt=68308598
icnt_total_pkts_simt_to_mem=68308598
LD_mem_lat_dist  0 0 0 0 0 0 0 0 0 0 0 0 0 0 0 0 0 0 0 0 0 0 0 0 0 0 0
ST_mem_lat_dist  0 0 0 0 0 0 0 0 0 0 0 0 0 0 0 0 0 0 0 0 0 0 0 0 0 0 0
----------------------------Interconnect-DETAILS--------------------------------
Req_Network_injected_packets_num = 68308598
Req_Network_cycles = 9227100
Req_Network_injected_packets_per_cycle =       7.4030 
Req_Network_conflicts_per_cycle =       2.2431
Req_Network_conflicts_per_cycle_util =       2.2666
Req_Bank_Level_Parallism =       7.4807
Req_Network_in_buffer_full_per_cycle =       0.0000
Req_Network_in_buffer_avg_util =       1.5316
Req_Network_out_buffer_full_per_cycle =       0.0000
Req_Network_out_buffer_avg_util =       0.3750

Reply_Network_injected_packets_num = 68308598
Reply_Network_cycles = 9227100
Reply_Network_injected_packets_per_cycle =        7.4030
Reply_Network_conflicts_per_cycle =        5.4073
Reply_Network_conflicts_per_cycle_util =       5.4605
Reply_Bank_Level_Parallism =       7.4760
Reply_Network_in_buffer_full_per_cycle =       0.0000
Reply_Network_in_buffer_avg_util =       1.1340
Reply_Network_out_buffer_full_per_cycle =       0.0000
Reply_Network_out_buffer_avg_util =       0.2468
----------------------------END-of-Interconnect-DETAILS-------------------------


gpgpu_simulation_time = 1 days, 3 hrs, 3 min, 24 sec (97404 sec)
gpgpu_simulation_rate = 45070 (inst/sec)
gpgpu_simulation_rate = 94 (cycle/sec)
gpgpu_silicon_slowdown = 14521276x
GPGPU-Sim: synchronize waiting for inactive GPU simulation
GPGPU-Sim API: Stream Manager State
GPGPU-Sim: detected inactive GPU simulation thread
	iterations = 7.
	runtime [cuda_base] = 97357095.783000 ms.
Verifying...
	runtime [serial] = 1149.227000 ms.
Correct
GPGPU-Sim: *** exit detected ***
