

        *** GPGPU-Sim Simulator Version 4.2.0  [build gpgpu-sim_git-commit-5e9d31b8132651796656877ecb58fde27177ba7a_modified_315.0] ***


GPGPU-Sim PTX: simulation mode 0 (can change with PTX_SIM_MODE_FUNC environment variable:
               1=functional simulation only, 0=detailed performance simulator)
GPGPU-Sim PTX: overriding embedded ptx with ptx file (PTX_SIM_USE_PTX_FILE is set)
GPGPU-Sim: Configuration options:

-save_embedded_ptx                      0 # saves ptx files embedded in binary as <n>.ptx
-keep                                   0 # keep intermediate files created by GPGPU-Sim when interfacing with external programs
-gpgpu_ptx_save_converted_ptxplus                    0 # Saved converted ptxplus to a file
-gpgpu_occupancy_sm_number                   75 # The SM number to pass to ptxas when getting register usage for computing GPU occupancy. This parameter is required in the config.
-ptx_opcode_latency_int           4,4,4,4,21 # Opcode latencies for integers <ADD,MAX,MUL,MAD,DIV,SHFL>Default 1,1,19,25,145,32
-ptx_opcode_latency_fp           4,4,4,4,39 # Opcode latencies for single precision floating points <ADD,MAX,MUL,MAD,DIV>Default 1,1,1,1,30
-ptx_opcode_latency_dp      64,64,64,64,330 # Opcode latencies for double precision floating points <ADD,MAX,MUL,MAD,DIV>Default 8,8,8,8,335
-ptx_opcode_latency_sfu                   21 # Opcode latencies for SFU instructionsDefault 8
-ptx_opcode_latency_tesnor                   64 # Opcode latencies for Tensor instructionsDefault 64
-ptx_opcode_initiation_int            2,2,2,2,2 # Opcode initiation intervals for integers <ADD,MAX,MUL,MAD,DIV,SHFL>Default 1,1,4,4,32,4
-ptx_opcode_initiation_fp            2,2,2,2,4 # Opcode initiation intervals for single precision floating points <ADD,MAX,MUL,MAD,DIV>Default 1,1,1,1,5
-ptx_opcode_initiation_dp      64,64,64,64,130 # Opcode initiation intervals for double precision floating points <ADD,MAX,MUL,MAD,DIV>Default 8,8,8,8,130
-ptx_opcode_initiation_sfu                    8 # Opcode initiation intervals for sfu instructionsDefault 8
-ptx_opcode_initiation_tensor                   64 # Opcode initiation intervals for tensor instructionsDefault 64
-cdp_latency         7200,8000,100,12000,1600 # CDP API latency <cudaStreamCreateWithFlags, cudaGetParameterBufferV2_init_perWarp, cudaGetParameterBufferV2_perKernel, cudaLaunchDeviceV2_init_perWarp, cudaLaunchDevicV2_perKernel>Default 7200,8000,100,12000,1600
-network_mode                           2 # Interconnection network mode
-inter_config_file                   mesh # Interconnection network config file
-icnt_in_buffer_limit                  512 # in_buffer_limit
-icnt_out_buffer_limit                  512 # out_buffer_limit
-icnt_subnets                           2 # subnets
-icnt_arbiter_algo                      1 # arbiter_algo
-icnt_verbose                           0 # inct_verbose
-icnt_grant_cycles                      1 # grant_cycles
-gpgpu_ptx_use_cuobjdump                    1 # Use cuobjdump to extract ptx and sass from binaries
-gpgpu_experimental_lib_support                    0 # Try to extract code from cuda libraries [Broken because of unknown cudaGetExportTable]
-checkpoint_option                      0 #  checkpointing flag (0 = no checkpoint)
-checkpoint_kernel                      1 #  checkpointing during execution of which kernel (1- 1st kernel)
-checkpoint_CTA                         0 #  checkpointing after # of CTA (< less than total CTA)
-resume_option                          0 #  resume flag (0 = no resume)
-resume_kernel                          0 #  Resume from which kernel (1= 1st kernel)
-resume_CTA                             0 #  resume from which CTA 
-checkpoint_CTA_t                       0 #  resume from which CTA 
-checkpoint_insn_Y                      0 #  resume from which CTA 
-gpgpu_ptx_convert_to_ptxplus                    0 # Convert SASS (native ISA) to ptxplus and run ptxplus
-gpgpu_ptx_force_max_capability                   75 # Force maximum compute capability
-gpgpu_ptx_inst_debug_to_file                    0 # Dump executed instructions' debug information to file
-gpgpu_ptx_inst_debug_file       inst_debug.txt # Executed instructions' debug output file
-gpgpu_ptx_inst_debug_thread_uid                    1 # Thread UID for executed instructions' debug output
-gpgpu_simd_model                       1 # 1 = post-dominator
-gpgpu_shader_core_pipeline              1024:32 # shader core pipeline config, i.e., {<nthread>:<warpsize>}
-gpgpu_tex_cache:l1  N:4:128:256,L:R:m:N:L,T:512:8,128:2 # per-shader L1 texture cache  (READ-ONLY) config  {<nsets>:<bsize>:<assoc>,<rep>:<wr>:<alloc>:<wr_alloc>,<mshr>:<N>:<merge>,<mq>:<rf>}
-gpgpu_const_cache:l1 N:128:64:8,L:R:f:N:L,S:2:64,4 # per-shader L1 constant memory cache  (READ-ONLY) config  {<nsets>:<bsize>:<assoc>,<rep>:<wr>:<alloc>:<wr_alloc>,<mshr>:<N>:<merge>,<mq>} 
-gpgpu_cache:il1     N:64:128:16,L:R:f:N:L,S:2:48,4 # shader L1 instruction cache config  {<nsets>:<bsize>:<assoc>,<rep>:<wr>:<alloc>:<wr_alloc>,<mshr>:<N>:<merge>,<mq>} 
-gpgpu_cache:dl1     S:4:128:64,L:T:m:L:L,A:256:32,16:0,32 # per-shader L1 data cache config  {<nsets>:<bsize>:<assoc>,<rep>:<wr>:<alloc>:<wr_alloc>,<mshr>:<N>:<merge>,<mq> | none}
-gpgpu_l1_cache_write_ratio                   25 # L1D write ratio
-gpgpu_l1_banks                         4 # The number of L1 cache banks
-gpgpu_l1_banks_byte_interleaving                   32 # l1 banks byte interleaving granularity
-gpgpu_l1_banks_hashing_function                    0 # l1 banks hashing function
-gpgpu_l1_latency                      32 # L1 Hit Latency
-gpgpu_smem_latency                    30 # smem Latency
-gpgpu_cache:dl1PrefL1                 none # per-shader L1 data cache config  {<nsets>:<bsize>:<assoc>,<rep>:<wr>:<alloc>:<wr_alloc>,<mshr>:<N>:<merge>,<mq> | none}
-gpgpu_cache:dl1PrefShared                 none # per-shader L1 data cache config  {<nsets>:<bsize>:<assoc>,<rep>:<wr>:<alloc>:<wr_alloc>,<mshr>:<N>:<merge>,<mq> | none}
-gpgpu_gmem_skip_L1D                    0 # global memory access skip L1D cache (implements -Xptxas -dlcm=cg, default=no skip)
-gpgpu_perfect_mem                      0 # enable perfect memory mode (no cache miss)
-n_regfile_gating_group                    4 # group of lanes that should be read/written together)
-gpgpu_clock_gated_reg_file                    0 # enable clock gated reg file for power calculations
-gpgpu_clock_gated_lanes                    0 # enable clock gated lanes for power calculations
-gpgpu_shader_registers                65536 # Number of registers per shader core. Limits number of concurrent CTAs. (default 8192)
-gpgpu_registers_per_block                65536 # Maximum number of registers per CTA. (default 8192)
-gpgpu_ignore_resources_limitation                    0 # gpgpu_ignore_resources_limitation (default 0)
-gpgpu_shader_cta                      16 # Maximum number of concurrent CTAs in shader (default 32)
-gpgpu_num_cta_barriers                   16 # Maximum number of named barriers per CTA (default 16)
-gpgpu_n_clusters                      30 # number of processing clusters
-gpgpu_n_cores_per_cluster                    1 # number of simd cores per cluster
-gpgpu_n_cluster_ejection_buffer_size                   32 # number of packets in ejection buffer
-gpgpu_n_ldst_response_buffer_size                    2 # number of response packets in ld/st unit ejection buffer
-gpgpu_shmem_per_block                49152 # Size of shared memory per thread block or CTA (default 48kB)
-gpgpu_shmem_size                   65536 # Size of shared memory per shader core (default 16kB)
-gpgpu_shmem_option                 32,64 # Option list of shared memory sizes
-gpgpu_unified_l1d_size                   96 # Size of unified data cache(L1D + shared memory) in KB
-gpgpu_adaptive_cache_config                    1 # adaptive_cache_config
-gpgpu_shmem_sizeDefault                65536 # Size of shared memory per shader core (default 16kB)
-gpgpu_shmem_size_PrefL1                16384 # Size of shared memory per shader core (default 16kB)
-gpgpu_shmem_size_PrefShared                16384 # Size of shared memory per shader core (default 16kB)
-gpgpu_shmem_num_banks                   32 # Number of banks in the shared memory in each shader core (default 16)
-gpgpu_shmem_limited_broadcast                    0 # Limit shared memory to do one broadcast per cycle (default on)
-gpgpu_shmem_warp_parts                    1 # Number of portions a warp is divided into for shared memory bank conflict check 
-gpgpu_mem_unit_ports                    1 # The number of memory transactions allowed per core cycle
-gpgpu_shmem_warp_parts                    1 # Number of portions a warp is divided into for shared memory bank conflict check 
-gpgpu_warpdistro_shader                   -1 # Specify which shader core to collect the warp size distribution from
-gpgpu_warp_issue_shader                    0 # Specify which shader core to collect the warp issue distribution from
-gpgpu_local_mem_map                    1 # Mapping from local memory space address to simulated GPU physical address space (default = enabled)
-gpgpu_num_reg_banks                    8 # Number of register banks (default = 8)
-gpgpu_reg_bank_use_warp_id                    0 # Use warp ID in mapping registers to banks (default = off)
-gpgpu_sub_core_model                    1 # Sub Core Volta/Pascal model (default = off)
-gpgpu_enable_specialized_operand_collector                    0 # enable_specialized_operand_collector
-gpgpu_operand_collector_num_units_sp                    4 # number of collector units (default = 4)
-gpgpu_operand_collector_num_units_dp                    0 # number of collector units (default = 0)
-gpgpu_operand_collector_num_units_sfu                    4 # number of collector units (default = 4)
-gpgpu_operand_collector_num_units_int                    0 # number of collector units (default = 0)
-gpgpu_operand_collector_num_units_tensor_core                    4 # number of collector units (default = 4)
-gpgpu_operand_collector_num_units_mem                    2 # number of collector units (default = 2)
-gpgpu_operand_collector_num_units_gen                    8 # number of collector units (default = 0)
-gpgpu_operand_collector_num_in_ports_sp                    1 # number of collector unit in ports (default = 1)
-gpgpu_operand_collector_num_in_ports_dp                    0 # number of collector unit in ports (default = 0)
-gpgpu_operand_collector_num_in_ports_sfu                    1 # number of collector unit in ports (default = 1)
-gpgpu_operand_collector_num_in_ports_int                    0 # number of collector unit in ports (default = 0)
-gpgpu_operand_collector_num_in_ports_tensor_core                    1 # number of collector unit in ports (default = 1)
-gpgpu_operand_collector_num_in_ports_mem                    1 # number of collector unit in ports (default = 1)
-gpgpu_operand_collector_num_in_ports_gen                    8 # number of collector unit in ports (default = 0)
-gpgpu_operand_collector_num_out_ports_sp                    1 # number of collector unit in ports (default = 1)
-gpgpu_operand_collector_num_out_ports_dp                    0 # number of collector unit in ports (default = 0)
-gpgpu_operand_collector_num_out_ports_sfu                    1 # number of collector unit in ports (default = 1)
-gpgpu_operand_collector_num_out_ports_int                    0 # number of collector unit in ports (default = 0)
-gpgpu_operand_collector_num_out_ports_tensor_core                    1 # number of collector unit in ports (default = 1)
-gpgpu_operand_collector_num_out_ports_mem                    1 # number of collector unit in ports (default = 1)
-gpgpu_operand_collector_num_out_ports_gen                    8 # number of collector unit in ports (default = 0)
-gpgpu_coalesce_arch                   75 # Coalescing arch (GT200 = 13, Fermi = 20)
-gpgpu_num_sched_per_core                    4 # Number of warp schedulers per core
-gpgpu_max_insn_issue_per_warp                    1 # Max number of instructions that can be issued per warp in one cycle by scheduler (either 1 or 2)
-gpgpu_dual_issue_diff_exec_units                    1 # should dual issue use two different execution unit resources (Default = 1)
-gpgpu_simt_core_sim_order                    1 # Select the simulation order of cores in a cluster (0=Fix, 1=Round-Robin)
-gpgpu_pipeline_widths 4,4,4,4,4,4,4,4,4,4,8,4,4 # Pipeline widths ID_OC_SP,ID_OC_DP,ID_OC_INT,ID_OC_SFU,ID_OC_MEM,OC_EX_SP,OC_EX_DP,OC_EX_INT,OC_EX_SFU,OC_EX_MEM,EX_WB,ID_OC_TENSOR_CORE,OC_EX_TENSOR_CORE
-gpgpu_tensor_core_avail                    1 # Tensor Core Available (default=0)
-gpgpu_num_sp_units                     4 # Number of SP units (default=1)
-gpgpu_num_dp_units                     4 # Number of DP units (default=0)
-gpgpu_num_int_units                    4 # Number of INT units (default=0)
-gpgpu_num_sfu_units                    4 # Number of SF units (default=1)
-gpgpu_num_tensor_core_units                    4 # Number of tensor_core units (default=1)
-gpgpu_num_mem_units                    1 # Number if ldst units (default=1) WARNING: not hooked up to anything
-gpgpu_scheduler                      lrr # Scheduler configuration: < lrr | gto | two_level_active > If two_level_active:<num_active_warps>:<inner_prioritization>:<outer_prioritization>For complete list of prioritization values see shader.h enum scheduler_prioritization_typeDefault: gto
-gpgpu_concurrent_kernel_sm                    0 # Support concurrent kernels on a SM (default = disabled)
-gpgpu_perfect_inst_const_cache                    1 # perfect inst and const cache mode, so all inst and const hits in the cache(default = disabled)
-gpgpu_inst_fetch_throughput                    4 # the number of fetched intruction per warp each cycle
-gpgpu_reg_file_port_throughput                    2 # the number ports of the register file
-specialized_unit_1         0,4,4,4,4,BRA # specialized unit config {<enabled>,<num_units>:<latency>:<initiation>,<ID_OC_SPEC>:<OC_EX_SPEC>,<NAME>}
-specialized_unit_2         0,4,4,4,4,BRA # specialized unit config {<enabled>,<num_units>:<latency>:<initiation>,<ID_OC_SPEC>:<OC_EX_SPEC>,<NAME>}
-specialized_unit_3         0,4,4,4,4,BRA # specialized unit config {<enabled>,<num_units>:<latency>:<initiation>,<ID_OC_SPEC>:<OC_EX_SPEC>,<NAME>}
-specialized_unit_4         0,4,4,4,4,BRA # specialized unit config {<enabled>,<num_units>:<latency>:<initiation>,<ID_OC_SPEC>:<OC_EX_SPEC>,<NAME>}
-specialized_unit_5         0,4,4,4,4,BRA # specialized unit config {<enabled>,<num_units>:<latency>:<initiation>,<ID_OC_SPEC>:<OC_EX_SPEC>,<NAME>}
-specialized_unit_6         0,4,4,4,4,BRA # specialized unit config {<enabled>,<num_units>:<latency>:<initiation>,<ID_OC_SPEC>:<OC_EX_SPEC>,<NAME>}
-specialized_unit_7         0,4,4,4,4,BRA # specialized unit config {<enabled>,<num_units>:<latency>:<initiation>,<ID_OC_SPEC>:<OC_EX_SPEC>,<NAME>}
-specialized_unit_8         0,4,4,4,4,BRA # specialized unit config {<enabled>,<num_units>:<latency>:<initiation>,<ID_OC_SPEC>:<OC_EX_SPEC>,<NAME>}
-gpgpu_perf_sim_memcpy                    1 # Fill the L2 cache on memcpy
-gpgpu_simple_dram_model                    0 # simple_dram_model with fixed latency and BW
-gpgpu_dram_scheduler                    1 # 0 = fifo, 1 = FR-FCFS (defaul)
-gpgpu_dram_partition_queues          64:64:64:64 # i2$:$2d:d2$:$2i
-l2_ideal                               0 # Use a ideal L2 cache that always hit
-gpgpu_cache:dl2     S:64:128:16,L:B:m:L:P,A:192:4,32:0,32 # unified banked L2 data cache config  {<nsets>:<bsize>:<assoc>,<rep>:<wr>:<alloc>:<wr_alloc>,<mshr>:<N>:<merge>,<mq>}
-gpgpu_cache:dl2_texture_only                    0 # L2 cache used for texture only
-gpgpu_n_mem                           12 # number of memory modules (e.g. memory controllers) in gpu
-gpgpu_n_sub_partition_per_mchannel                    2 # number of memory subpartition in each memory module
-gpgpu_n_mem_per_ctrlr                    1 # number of memory chips per memory controller
-gpgpu_memlatency_stat                   14 # track and display latency statistics 0x2 enables MC, 0x4 enables queue logs
-gpgpu_frfcfs_dram_sched_queue_size                   64 # 0 = unlimited (default); # entries per chip
-gpgpu_dram_return_queue_size                  192 # 0 = unlimited (default); # entries per chip
-gpgpu_dram_buswidth                    2 # default = 4 bytes (8 bytes per cycle at DDR)
-gpgpu_dram_burst_length                   16 # Burst length of each DRAM request (default = 4 data bus cycle)
-dram_data_command_freq_ratio                    4 # Frequency ratio between DRAM data bus and command bus (default = 2 times, i.e. DDR)
-gpgpu_dram_timing_opt nbk=16:CCD=4:RRD=12:RCD=24:RAS=55:RP=24:RC=78:CL=24:WL=8:CDLR=10:WR=24:nbkgrp=4:CCDL=6:RTPL=4 # DRAM timing parameters = {nbk:tCCD:tRRD:tRCD:tRAS:tRP:tRC:CL:WL:tCDLR:tWR:nbkgrp:tCCDL:tRTPL}
-gpgpu_l2_rop_latency                  194 # ROP queue latency (default 85)
-dram_latency                          96 # DRAM latency (default 30)
-dram_dual_bus_interface                    0 # dual_bus_interface (default = 0) 
-dram_bnk_indexing_policy                    0 # dram_bnk_indexing_policy (0 = normal indexing, 1 = Xoring with the higher bits) (Default = 0)
-dram_bnkgrp_indexing_policy                    1 # dram_bnkgrp_indexing_policy (0 = take higher bits, 1 = take lower bits) (Default = 0)
-dram_seperate_write_queue_enable                    0 # Seperate_Write_Queue_Enable
-dram_write_queue_size             32:28:16 # Write_Queue_Size
-dram_elimnate_rw_turnaround                    0 # elimnate_rw_turnaround i.e set tWTR and tRTW = 0
-icnt_flit_size                        40 # icnt_flit_size
-icnt_flit_size                        40 # icnt_flit_size
-mem_profiler                           1 # memory access runtime profiling (0 = not enabled)
-gpgpu_mem_addr_mapping dramid@8;00000000.00000000.00000000.00000000.0000RRRR.RRRRRRRR.RBBBCCCC.BCCSSSSS # mapping memory address to dram model {dramid@<start bit>;<memory address map>}
-gpgpu_mem_addr_test                    0 # run sweep test to check address mapping for aliased address
-gpgpu_mem_address_mask                    1 # 0 = old addressing mask, 1 = new addressing mask, 2 = new add. mask + flipped bank sel and chip sel bits
-gpgpu_memory_partition_indexing                    0 # 0 = no indexing, 1 = bitwise xoring, 2 = IPoly, 3 = custom indexing
-accelwattch_xml_file accelwattch_sass_sim.xml # AccelWattch XML file
-power_simulation_enabled                    1 # Turn on power simulator (1=On, 0=Off)
-power_per_cycle_dump                    1 # Dump detailed power output each cycle
-hw_perf_file_name            hw_perf.csv # Hardware Performance Statistics file
-hw_perf_bench_name    hw_perf_bench_name # Kernel Name in Hardware Performance Statistics file
-power_simulation_mode                    0 # Switch performance counter input for power simulation (0=Sim, 1=HW, 2=HW-Sim Hybrid)
-dvfs_enabled                           1 # Turn on DVFS for power model
-aggregate_power_stats                    0 # Accumulate power across all kernels
-accelwattch_hybrid_perfsim_L1_RH                    0 # Get L1 Read Hits for Accelwattch-Hybrid from Accel-Sim
-accelwattch_hybrid_perfsim_L1_RM                    0 # Get L1 Read Misses for Accelwattch-Hybrid from Accel-Sim
-accelwattch_hybrid_perfsim_L1_WH                    0 # Get L1 Write Hits for Accelwattch-Hybrid from Accel-Sim
-accelwattch_hybrid_perfsim_L1_WM                    0 # Get L1 Write Misses for Accelwattch-Hybrid from Accel-Sim
-accelwattch_hybrid_perfsim_L2_RH                    0 # Get L2 Read Hits for Accelwattch-Hybrid from Accel-Sim
-accelwattch_hybrid_perfsim_L2_RM                    0 # Get L2 Read Misses for Accelwattch-Hybrid from Accel-Sim
-accelwattch_hybrid_perfsim_L2_WH                    0 # Get L2 Write Hits for Accelwattch-Hybrid from Accel-Sim
-accelwattch_hybrid_perfsim_L2_WM                    0 # Get L2 Write Misses for Accelwattch-Hybrid from Accel-Sim
-accelwattch_hybrid_perfsim_CC_ACC                    0 # Get Constant Cache Acesses for Accelwattch-Hybrid from Accel-Sim
-accelwattch_hybrid_perfsim_SHARED_ACC                    0 # Get Shared Memory Acesses for Accelwattch-Hybrid from Accel-Sim
-accelwattch_hybrid_perfsim_DRAM_RD                    0 # Get DRAM Reads for Accelwattch-Hybrid from Accel-Sim
-accelwattch_hybrid_perfsim_DRAM_WR                    0 # Get DRAM Writes for Accelwattch-Hybrid from Accel-Sim
-accelwattch_hybrid_perfsim_NOC                    0 # Get Interconnect Acesses for Accelwattch-Hybrid from Accel-Sim
-accelwattch_hybrid_perfsim_PIPE_DUTY                    0 # Get Pipeline Duty Cycle Acesses for Accelwattch-Hybrid from Accel-Sim
-accelwattch_hybrid_perfsim_NUM_SM_IDLE                    0 # Get Number of Idle SMs for Accelwattch-Hybrid from Accel-Sim
-accelwattch_hybrid_perfsim_CYCLES                    0 # Get Executed Cycles for Accelwattch-Hybrid from Accel-Sim
-accelwattch_hybrid_perfsim_VOLTAGE                    0 # Get Chip Voltage for Accelwattch-Hybrid from Accel-Sim
-power_trace_enabled                    0 # produce a file for the power trace (1=On, 0=Off)
-power_trace_zlevel                     0 # Compression level of the power trace output log (0=no comp, 9=highest)
-steady_power_levels_enabled                    0 # produce a file for the steady power levels (1=On, 0=Off)
-steady_state_definition                  8:4 # allowed deviation:number of samples
-gpgpu_max_cycle                        0 # terminates gpu simulation early (0 = no limit)
-gpgpu_max_insn                         0 # terminates gpu simulation early (0 = no limit)
-gpgpu_max_cta                          0 # terminates gpu simulation early (0 = no limit)
-gpgpu_max_completed_cta                    0 # terminates gpu simulation early (0 = no limit)
-gpgpu_runtime_stat                   100 # display runtime statistics such as dram utilization {<freq>:<flag>}
-liveness_message_freq                    1 # Minimum number of seconds between simulation liveness messages (0 = always print)
-gpgpu_compute_capability_major                    7 # Major compute capability version number
-gpgpu_compute_capability_minor                    5 # Minor compute capability version number
-gpgpu_flush_l1_cache                    1 # Flush L1 cache at the end of each kernel call
-gpgpu_flush_l2_cache                    0 # Flush L2 cache at the end of each kernel call
-gpgpu_deadlock_detect                    1 # Stop the simulation at deadlock (1=on (default), 0=off)
-gpgpu_ptx_instruction_classification                    0 # if enabled will classify ptx instruction types per kernel (Max 255 kernels now)
-gpgpu_ptx_sim_mode                     0 # Select between Performance (default) or Functional simulation (1)
-gpgpu_clock_domains 1365:1365:1365:3500.5 # Clock Domain Frequencies in MhZ {<Core Clock>:<ICNT Clock>:<L2 Clock>:<DRAM Clock>}
-gpgpu_max_concurrent_kernel                  128 # maximum kernels that can run concurrently on GPU, set this value according to max resident grids for your compute capability
-gpgpu_cflog_interval                    0 # Interval between each snapshot in control flow logger
-visualizer_enabled                     0 # Turn on visualizer output (1=On, 0=Off)
-visualizer_outputfile                 NULL # Specifies the output log file for visualizer
-visualizer_zlevel                      6 # Compression level of the visualizer output log (0=no comp, 9=highest)
-gpgpu_stack_size_limit                 1024 # GPU thread stack size
-gpgpu_heap_size_limit              8388608 # GPU malloc heap size 
-gpgpu_runtime_sync_depth_limit                    2 # GPU device runtime synchronize depth
-gpgpu_runtime_pending_launch_count_limit                 2048 # GPU device runtime pending launch count
-trace_enabled                          0 # Turn on traces
-trace_components                    none # comma seperated list of traces to enable. Complete list found in trace_streams.tup. Default none
-trace_sampling_core                    0 # The core which is printed using CORE_DPRINTF. Default 0
-trace_sampling_memory_partition                   -1 # The memory partition which is printed using MEMPART_DPRINTF. Default -1 (i.e. all)
-enable_ptx_file_line_stats                    1 # Turn on PTX source line statistic profiling. (1 = On)
-ptx_line_stats_filename gpgpu_inst_stats.txt # Output file for PTX source line statistics.
-gpgpu_kernel_launch_latency                 5000 # Kernel launch latency in cycles. Default: 0
-gpgpu_cdp_enabled                      0 # Turn on CDP
-gpgpu_TB_launch_latency                    0 # thread block launch latency in cycles. Default: 0
-mem_runtime_stat              4294967396 # memory access runtime profiling sampling73d12597f62e83fd68a45fffe9b379b8  /home/pars/Documents/sim_7/pr_base
Extracting PTX file and ptxas options    1: pr_base.1.sm_75.ptx -arch=sm_75
 freq
-L1D_metrics                            1 # memory access runtime profiling for L1 data cache
-IPC_per_prof_interval                    1 # IPC per profiling interval
-instruction_monitor                    1 # Instruction monitor
-noncoal_metrics                        0 # memory access runtime profiling for shared memory
-L2_metrics                             1 # memory access runtime profiling for L2 cache
-DRAM_metrics                           1 # memory access runtime profiling for DRAM
-Shmem_metrics                          0 # memory access runtime profiling for noncoalesced accesses
-store_enable                           1 # Enable stores for memory profiling
-accumulate_stats                       0 # Accumulate stats for the memory profiling
-dump_enable                            0 # Process dump enable flag - (def = 0)
-flush_l1d                              0 # Enable flushings for L1D caches - (default = 0)
-flush_l2                               0 # Enable flushings for L2 caches - (default = 0)
-flush_dram                             0 # Enable flushings for DRAM - (default = 0)
-flush_noncoalesceds                    0 # Enable flushings for non coalesced accesses - (default = 0)
-flush_shmems                           0 # Enable flushings for shared memory accesses - (default = 0)
-error_percentage          21474836480001 # Error percentage for the flushes - (default = 1)
-dump_sampling_cycle       21474836485000 # Dump sampling frequency - (default = 5000)
-flush_acc_type                         2 # Flush access types
-monitor_sampling_cycle                 5000 # Monitoring sampling cycle - (default = 5000)
DRAM Timing Options:
nbk                                    16 # number of banks
CCD                                     4 # column to column delay
RRD                                    12 # minimal delay between activation of rows in different banks
RCD                                    24 # row to column delay
RAS                                    55 # time needed to activate row
RP                                     24 # time needed to precharge (deactivate) row
RC                                     78 # row cycle time
CDLR                                   10 # switching from write to read (changes tWTR)
WR                                     24 # last data-in to row precharge
CL                                     24 # CAS latency
WL                                      8 # Write latency
nbkgrp                                  4 # number of bank groups
CCDL                                    6 # column to column delay between accesses to different bank groups
RTPL                                    4 # read to precharge delay between accesses to different bank groups
Total number of memory sub partition = 24
addr_dec_mask[CHIP]  = 0000000000000000 	high:64 low:0
addr_dec_mask[BK]    = 0000000000007080 	high:15 low:7
addr_dec_mask[ROW]   = 000000000fff8000 	high:28 low:15
addr_dec_mask[COL]   = 0000000000000f7f 	high:12 low:0
addr_dec_mask[BURST] = 000000000000001f 	high:5 low:0
sub_partition_id_mask = 0000000000000080
GPGPU-Sim uArch: clock freqs: 1365000000.000000:1365000000.000000:1365000000.000000:3500500000.000000
GPGPU-Sim uArch: clock periods: 0.00000000073260073260:0.00000000073260073260:0.00000000073260073260:0.00000000028567347522
*** Initializing Memory Statistics ***
GPGPU-Sim uArch: performance model initialization complete.
self exe links to: /home/pars/Documents/sim_7/pr_base
self exe links to: /home/pars/Documents/sim_7/pr_base
11.0
GPGPU-Sim PTX: __cudaRegisterFatBinary, fat_cubin_handle = 1, filename=default
self exe links to: /home/pars/Documents/sim_7/pr_base
Running md5sum using "md5sum /home/pars/Documents/sim_7/pr_base "
self exe links to: /home/pars/Documents/sim_7/pr_base
Extracting specific PTX file named pr_base.1.sm_75.ptx 
GPGPU-Sim PTX: __cudaRegisterFunction _ZN3cub11EmptyKernelIvEEvv : hostFun 0x0x560f93c77b52, fat_cubin_handle = 1
GPGPU-Sim PTX: Parsing pr_base.1.sm_75.ptx
GPGPU-Sim PTX: allocating global region for "_ZN37_INTERNAL_61f75dc7_7_base_cu_297024296thrust6system6detail10sequential3seqE" from 0x100 to 0x101 (global memory space)
GPGPU-Sim PTX: allocating global region for "_ZN37_INTERNAL_61f75dc7_7_base_cu_297024296thrust12placeholders2_1E" from 0x101 to 0x102 (global memory space)
GPGPU-Sim PTX: allocating global region for "_ZN37_INTERNAL_61f75dc7_7_base_cu_297024296thrust12placeholders2_2E" from 0x102 to 0x103 (global memory space)
GPGPU-Sim PTX: allocating global region for "_ZN37_INTERNAL_61f75dc7_7_base_cu_297024296thrust12placeholders2_3E" from 0x103 to 0x104 (global memory space)
GPGPU-Sim PTX: allocating global region for "_ZN37_INTERNAL_61f75dc7_7_base_cu_297024296thrust12placeholders2_4E" from 0x104 to 0x105 (global memory space)
GPGPU-Sim PTX: allocating global region for "_ZN37_INTERNAL_61f75dc7_7_base_cu_297024296thrust12placeholders2_5E" from 0x105 to 0x106 (global memory space)
GPGPU-Sim PTX: allocating global region for "_ZN37_INTERNAL_61f75dc7_7_base_cu_297024296thrust12placeholders2_6E" from 0x106 to 0x107 (global memory space)
GPGPU-Sim PTX: allocating global region for "_ZN37_INTERNAL_61f75dc7_7_base_cu_297024296thrust12placeholders2_7E" from 0x107 to 0x108 (global memory space)
GPGPU-Sim PTX: allocating global region for "_ZN37_INTERNAL_61f75dc7_7_base_cu_297024296thrust12placeholders2_8E" from 0x108 to 0x109 (global memory space)
GPGPU-Sim PTX: allocating global region for "_ZN37_INTERNAL_61f75dc7_7_base_cu_297024296thrust12placeholders2_9E" from 0x109 to 0x10a (global memory space)
GPGPU-Sim PTX: allocating global region for "_ZN37_INTERNAL_61f75dc7_7_base_cu_297024296thrust12placeholders3_10E" from 0x10a to 0x10b (global memory space)
GPGPU-Sim PTX: instruction assembly for function '_Z7contribiPfPiS_'...   done.
GPGPU-Sim PTX: Warning -- ignoring pragma 'nounroll'
GPGPU-Sim PTX: instruction assembly for function '_Z9pull_stepiPKmPKiPfS3_'...   done.
GPGPU-Sim PTX: allocating shared region for "_ZZ6l1normiPfS_S_fE12temp_storage" from 0x0 to 0x2c (shared memory space)
GPGPU-Sim PTX: instruction assembly for function '_Z6l1normiPfS_S_f'...   done.
GPGPU-Sim PTX: allocating shared region for "_ZZ10pull_fusediPKmPKiPfS3_S3_fE12temp_storage" from 0x0 to 0x2c (shared memory space)
GPGPU-Sim PTX: Warning -- ignoring pragma 'nounroll'
GPGPU-Sim PTX: instruction assembly for function '_Z10pull_fusediPKmPKiPfS3_S3_f'...   done.
GPGPU-Sim PTX: instruction assembly for function '_ZN3cub11EmptyKernelIvEEvv'...   done.
GPGPU-Sim PTX: finished parsing EMBEDDED .ptx file pr_base.1.sm_75.ptx
GPGPU-Sim PTX: loading globals with explicit initializers... 
GPGPU-Sim PTX: finished loading globals (0 bytes total).
GPGPU-Sim PTX: loading constants with explicit initializers...  done.
GPGPU-Sim PTX: Loading PTXInfo from pr_base.1.sm_75.ptx
GPGPU-Sim PTX: Kernel '_ZN3cub11EmptyKernelIvEEvv' : regs=4, lmem=0, smem=0, cmem=352
GPGPU-Sim PTX: Kernel '_Z10pull_fusediPKmPKiPfS3_S3_f' : regs=44, lmem=0, smem=44, cmem=404
GPGPU-Sim PTX: Kernel '_Z6l1normiPfS_S_f' : regs=18, lmem=0, smem=44, cmem=388
GPGPU-Sim PTX: Kernel '_Z9pull_stepiPKmPKiPfS3_' : regs=43, lmem=0, smem=0, cmem=392
GPGPU-Sim PTX: Kernel '_Z7contribiPfPiS_' : regs=15, lmem=0, smem=0, cmem=384
GPGPU-Sim PTX: __cudaRegisterFunction _Z10pull_fusediPKmPKiPfS3_S3_f : hostFun 0x0x560f93c7723f, fat_cubin_handle = 1
GPGPU-Sim PTX: __cudaRegisterFunction _Z6l1normiPfS_S_f : hostFun 0x0x560f93c77035, fat_cubin_handle = 1
GPGPU-Sim PTX: __cudaRegisterFunction _Z9pull_stepiPKmPKiPfS3_ : hostFun 0x0x560f93c76e77, fat_cubin_handle = 1
GPGPU-Sim PTX: __cudaRegisterFunction _Z7contribiPfPiS_ : hostFun 0x0x560f93c76cbc, fat_cubin_handle = 1
GPGPU-Sim PTX: __cudaRegisterVar: hostVar = 0x560f93c7e24d; deviceAddress = _ZN37_INTERNAL_61f75dc7_7_base_cu_297024296thrust6system6detail10sequential3seqE; deviceName = _ZN37_INTERNAL_61f75dc7_7_base_cu_297024296thrust6system6detail10sequential3seqE
GPGPU-Sim PTX: __cudaRegisterVar: Registering const memory space of 1 bytes
GPGPU-Sim PTX registering global _ZN37_INTERNAL_61f75dc7_7_base_cu_297024296thrust6system6detail10sequential3seqE hostVar to name mapping
GPGPU-Sim PTX: __cudaRegisterVar: hostVar = 0x560f93c7e388; deviceAddress = _ZN37_INTERNAL_61f75dc7_7_base_cu_297024296thrust12placeholders2_1E; deviceName = _ZN37_INTERNAL_61f75dc7_7_base_cu_297024296thrust12placeholders2_1E
GPGPU-Sim PTX: __cudaRegisterVar: Registering const memory space of 1 bytes
GPGPU-Sim PTX registering global _ZN37_INTERNAL_61f75dc7_7_base_cu_297024296thrust12placeholders2_1E hostVar to name mapping
GPGPU-Sim PTX: __cudaRegisterVar: hostVar = 0x560f93c7e389; deviceAddress = _ZN37_INTERNAL_61f75dc7_7_base_cu_297024296thrust12placeholders2_2E; deviceName = _ZN37_INTERNAL_61f75dc7_7_base_cu_297024296thrust12placeholders2_2E
GPGPU-Sim PTX: __cudaRegisterVar: Registering const memory space of 1 bytes
GPGPU-Sim PTX registering global _ZN37_INTERNAL_61f75dc7_7_base_cu_297024296thrust12placeholders2_2E hostVar to name mapping
GPGPU-Sim PTX: __cudaRegisterVar: hostVar = 0x560f93c7e38a; deviceAddress = _ZN37_INTERNAL_61f75dc7_7_base_cu_297024296thrust12placeholders2_3E; deviceName = _ZN37_INTERNAL_61f75dc7_7_base_cu_297024296thrust12placeholders2_3E
GPGPU-Sim PTX: __cudaRegisterVar: Registering const memory space of 1 bytes
GPGPU-Sim PTX registering global _ZN37_INTERNAL_61f75dc7_7_base_cu_297024296thrust12placeholders2_3E hostVar to name mapping
GPGPU-Sim PTX: __cudaRegisterVar: hostVar = 0x560f93c7e38b; deviceAddress = _ZN37_INTERNAL_61f75dc7_7_base_cu_297024296thrust12placeholders2_4E; deviceName = _ZN37_INTERNAL_61f75dc7_7_base_cu_297024296thrust12placeholders2_4E
GPGPU-Sim PTX: __cudaRegisterVar: Registering const memory space of 1 bytes
GPGPU-Sim PTX registering global _ZN37_INTERNAL_61f75dc7_7_base_cu_297024296thrust12placeholders2_4E hostVar to name mapping
GPGPU-Sim PTX: __cudaRegisterVar: hostVar = 0x560f93c7e38c; deviceAddress = _ZN37_INTERNAL_61f75dc7_7_base_cu_297024296thrust12placeholders2_5E; deviceName = _ZN37_INTERNAL_61f75dc7_7_base_cu_297024296thrust12placeholders2_5E
GPGPU-Sim PTX: __cudaRegisterVar: Registering const memory space of 1 bytes
GPGPU-Sim PTX registering global _ZN37_INTERNAL_61f75dc7_7_base_cu_297024296thrust12placeholders2_5E hostVar to name mapping
GPGPU-Sim PTX: __cudaRegisterVar: hostVar = 0x560f93c7e38d; deviceAddress = _ZN37_INTERNAL_61f75dc7_7_base_cu_297024296thrust12placeholders2_6E; deviceName = _ZN37_INTERNAL_61f75dc7_7_base_cu_297024296thrust12placeholders2_6E
GPGPU-Sim PTX: __cudaRegisterVar: Registering const memory space of 1 bytes
GPGPU-Sim PTX registering global _ZN37_INTERNAL_61f75dc7_7_base_cu_297024296thrust12placeholders2_6E hostVar to name mapping
GPGPU-Sim PTX: __cudaRegisterVar: hostVar = 0x560f93c7e38e; deviceAddress = _ZN37_INTERNAL_61f75dc7_7_base_cu_297024296thrust12placeholders2_7E; deviceName = _ZN37_INTERNAL_61f75dc7_7_base_cu_297024296thrust12placeholders2_7E
GPGPU-Sim PTX: __cudaRegisterVar: Registering const memory space of 1 bytes
GPGPU-Sim PTX registering global _ZN37_INTERNAL_61f75dc7_7_base_cu_297024296thrust12placeholders2_7E hostVar to name mapping
GPGPU-Sim PTX: __cudaRegisterVar: hostVar = 0x560f93c7e38f; deviceAddress = _ZN37_INTERNAL_61f75dc7_7_base_cu_297024296thrust12placeholders2_8E; deviceName = _ZN37_INTERNAL_61f75dc7_7_base_cu_297024296thrust12placeholders2_8E
GPGPU-Sim PTX: __cudaRegisterVar: Registering const memory space of 1 bytes
GPGPU-Sim PTX registering global _ZN37_INTERNAL_61f75dc7_7_base_cu_297024296thrust12placeholders2_8E hostVar to name mapping
GPGPU-Sim PTX: __cudaRegisterVar: hostVar = 0x560f93c7e390; deviceAddress = _ZN37_INTERNAL_61f75dc7_7_base_cu_297024296thrust12placeholders2_9E; deviceName = _ZN37_INTERNAL_61f75dc7_7_base_cu_297024296thrust12placeholders2_9E
GPGPU-Sim PTX: __cudaRegisterVar: Registering const memory space of 1 bytes
GPGPU-Sim PTX registering global _ZN37_INTERNAL_61f75dc7_7_base_cu_297024296thrust12placeholders2_9E hostVar to name mapping
GPGPU-Sim PTX: __cudaRegisterVar: hostVar = 0x560f93c7e391; deviceAddress = _ZN37_INTERNAL_61f75dc7_7_base_cu_297024296thrust12placeholders3_10E; deviceName = _ZN37_INTERNAL_61f75dc7_7_base_cu_297024296thrust12placeholders3_10E
GPGPU-Sim PTX: __cudaRegisterVar: Registering const memory space of 1 bytes
GPGPU-Sim PTX registering global _ZN37_INTERNAL_61f75dc7_7_base_cu_297024296thrust12placeholders3_10E hostVar to name mapping
PageRank by Xuhao Chen
Reading (.mtx) input file ../CudaBenchmarks/gardenia/datasets/web-BerkStan.mtx
Removing redundent edges... 0 redundent edges are removed
|V| 685230 |E| 7600595
This graph maintains both incomming and outgoing edge-list
Launching CUDA PR solver (2677 CTAs, 256 threads/CTA) ...
GPGPU-Sim PTX: Setting up arguments for 4 bytes starting at 0x7ffcf5a9a8dc..
GPGPU-Sim PTX: Setting up arguments for 8 bytes starting at 0x7ffcf5a9a8d0..
GPGPU-Sim PTX: Setting up arguments for 8 bytes starting at 0x7ffcf5a9a8c8..
GPGPU-Sim PTX: Setting up arguments for 8 bytes starting at 0x7ffcf5a9a8c0..

GPGPU-Sim PTX: cudaLaunch for 0x0x560f93c76cbc (mode=performance simulation) on stream 0
GPGPU-Sim PTX: finding reconvergence points for '_Z7contribiPfPiS_'...
GPGPU-Sim PTX: Finding dominators for '_Z7contribiPfPiS_'...
GPGPU-Sim PTX: Finding immediate dominators for '_Z7contribiPfPiS_'...
GPGPU-Sim PTX: Finding postdominators for '_Z7contribiPfPiS_'...
GPGPU-Sim PTX: Finding immediate postdominators for '_Z7contribiPfPiS_'...
GPGPU-Sim PTX: pre-decoding instructions for '_Z7contribiPfPiS_'...
GPGPU-Sim PTX: reconvergence points for _Z7contribiPfPiS_...
GPGPU-Sim PTX:  1 (potential) branch divergence @  PC=0x048 (pr_base.1.sm_75.ptx:50) @%p1 bra $L__BB0_2;

GPGPU-Sim PTX:    immediate post dominator      @  PC=0x0b0 (pr_base.1.sm_75.ptx:66) ret;

GPGPU-Sim PTX: ... end of reconvergence points for _Z7contribiPfPiS_
GPGPU-Sim PTX: ... done pre-decoding instructions for '_Z7contribiPfPiS_'.
GPGPU-Sim PTX: pushing kernel '_Z7contribiPfPiS_' to stream 0, gridDim= (2677,1,1) blockDim = (256,1,1) 
GPGPU-Sim uArch: Shader 0 bind to kernel 1 '_Z7contribiPfPiS_'
GPGPU-Sim uArch: CTA/core = 4, limited by: threads
GPGPU-Sim: Reconfigure L1 cache to 64KB
GPGPU-Sim uArch: Shader 1 bind to kernel 1 '_Z7contribiPfPiS_'
GPGPU-Sim uArch: Shader 2 bind to kernel 1 '_Z7contribiPfPiS_'
GPGPU-Sim uArch: Shader 3 bind to kernel 1 '_Z7contribiPfPiS_'
GPGPU-Sim uArch: Shader 4 bind to kernel 1 '_Z7contribiPfPiS_'
GPGPU-Sim uArch: Shader 5 bind to kernel 1 '_Z7contribiPfPiS_'
GPGPU-Sim uArch: Shader 6 bind to kernel 1 '_Z7contribiPfPiS_'
GPGPU-Sim uArch: Shader 7 bind to kernel 1 '_Z7contribiPfPiS_'
GPGPU-Sim uArch: Shader 8 bind to kernel 1 '_Z7contribiPfPiS_'
GPGPU-Sim uArch: Shader 9 bind to kernel 1 '_Z7contribiPfPiS_'
GPGPU-Sim uArch: Shader 10 bind to kernel 1 '_Z7contribiPfPiS_'
GPGPU-Sim uArch: Shader 11 bind to kernel 1 '_Z7contribiPfPiS_'
GPGPU-Sim uArch: Shader 12 bind to kernel 1 '_Z7contribiPfPiS_'
GPGPU-Sim uArch: Shader 13 bind to kernel 1 '_Z7contribiPfPiS_'
GPGPU-Sim uArch: Shader 14 bind to kernel 1 '_Z7contribiPfPiS_'
GPGPU-Sim uArch: Shader 15 bind to kernel 1 '_Z7contribiPfPiS_'
GPGPU-Sim uArch: Shader 16 bind to kernel 1 '_Z7contribiPfPiS_'
GPGPU-Sim uArch: Shader 17 bind to kernel 1 '_Z7contribiPfPiS_'
GPGPU-Sim uArch: Shader 18 bind to kernel 1 '_Z7contribiPfPiS_'
GPGPU-Sim uArch: Shader 19 bind to kernel 1 '_Z7contribiPfPiS_'
GPGPU-Sim uArch: Shader 20 bind to kernel 1 '_Z7contribiPfPiS_'
GPGPU-Sim uArch: Shader 21 bind to kernel 1 '_Z7contribiPfPiS_'
GPGPU-Sim uArch: Shader 22 bind to kernel 1 '_Z7contribiPfPiS_'
GPGPU-Sim uArch: Shader 23 bind to kernel 1 '_Z7contribiPfPiS_'
GPGPU-Sim uArch: Shader 24 bind to kernel 1 '_Z7contribiPfPiS_'
GPGPU-Sim uArch: Shader 25 bind to kernel 1 '_Z7contribiPfPiS_'
GPGPU-Sim uArch: Shader 26 bind to kernel 1 '_Z7contribiPfPiS_'
GPGPU-Sim uArch: Shader 27 bind to kernel 1 '_Z7contribiPfPiS_'
GPGPU-Sim uArch: Shader 28 bind to kernel 1 '_Z7contribiPfPiS_'
GPGPU-Sim uArch: Shader 29 bind to kernel 1 '_Z7contribiPfPiS_'
Destroy streams for kernel 1: size 0
kernel_name = _Z7contribiPfPiS_ 
kernel_launch_uid = 1 
gpu_sim_cycle = 38988
gpu_sim_insn = 15075962
gpu_ipc =     386.6821
gpu_tot_sim_cycle = 38988
gpu_tot_sim_insn = 15075962
gpu_tot_ipc =     386.6821
gpu_tot_issued_cta = 2677
gpu_occupancy = 90.4734% 
gpu_tot_occupancy = 90.4734% 
max_total_param_size = 0
gpu_stall_dramfull = 0
gpu_stall_icnt2sh    = 0
partiton_level_parallism =       6.5908
partiton_level_parallism_total  =       6.5908
partiton_level_parallism_util =       7.7115
partiton_level_parallism_util_total  =       7.7115
L2_BW  =     287.8860 GB/Sec
L2_BW_total  =     287.8860 GB/Sec
gpu_total_sim_rate=43825

========= Core cache stats =========
L1I_cache:
	L1I_total_cache_accesses = 0
	L1I_total_cache_misses = 0
	L1I_total_cache_pending_hits = 0
	L1I_total_cache_reservation_fails = 0
L1D_cache:
	L1D_cache_core[0]: Access = 8640, Miss = 8640, Miss_rate = 1.000, Pending_hits = 0, Reservation_fails = 2560
	L1D_cache_core[1]: Access = 8064, Miss = 8064, Miss_rate = 1.000, Pending_hits = 0, Reservation_fails = 3226
	L1D_cache_core[2]: Access = 8544, Miss = 8544, Miss_rate = 1.000, Pending_hits = 0, Reservation_fails = 2559
	L1D_cache_core[3]: Access = 8736, Miss = 8736, Miss_rate = 1.000, Pending_hits = 0, Reservation_fails = 2469
	L1D_cache_core[4]: Access = 8640, Miss = 8640, Miss_rate = 1.000, Pending_hits = 0, Reservation_fails = 2130
	L1D_cache_core[5]: Access = 8448, Miss = 8448, Miss_rate = 1.000, Pending_hits = 0, Reservation_fails = 2236
	L1D_cache_core[6]: Access = 8352, Miss = 8352, Miss_rate = 1.000, Pending_hits = 0, Reservation_fails = 2979
	L1D_cache_core[7]: Access = 8544, Miss = 8544, Miss_rate = 1.000, Pending_hits = 0, Reservation_fails = 2597
	L1D_cache_core[8]: Access = 8736, Miss = 8736, Miss_rate = 1.000, Pending_hits = 0, Reservation_fails = 2530
	L1D_cache_core[9]: Access = 8640, Miss = 8640, Miss_rate = 1.000, Pending_hits = 0, Reservation_fails = 2315
	L1D_cache_core[10]: Access = 8448, Miss = 8448, Miss_rate = 1.000, Pending_hits = 0, Reservation_fails = 2462
	L1D_cache_core[11]: Access = 8448, Miss = 8448, Miss_rate = 1.000, Pending_hits = 0, Reservation_fails = 2500
	L1D_cache_core[12]: Access = 8544, Miss = 8544, Miss_rate = 1.000, Pending_hits = 0, Reservation_fails = 2387
	L1D_cache_core[13]: Access = 8640, Miss = 8640, Miss_rate = 1.000, Pending_hits = 0, Reservation_fails = 2543
	L1D_cache_core[14]: Access = 8544, Miss = 8544, Miss_rate = 1.000, Pending_hits = 0, Reservation_fails = 2493
	L1D_cache_core[15]: Access = 8640, Miss = 8640, Miss_rate = 1.000, Pending_hits = 0, Reservation_fails = 2428
	L1D_cache_core[16]: Access = 8544, Miss = 8544, Miss_rate = 1.000, Pending_hits = 0, Reservation_fails = 2606
	L1D_cache_core[17]: Access = 8640, Miss = 8640, Miss_rate = 1.000, Pending_hits = 0, Reservation_fails = 2200
	L1D_cache_core[18]: Access = 8544, Miss = 8544, Miss_rate = 1.000, Pending_hits = 0, Reservation_fails = 2284
	L1D_cache_core[19]: Access = 8640, Miss = 8640, Miss_rate = 1.000, Pending_hits = 0, Reservation_fails = 2529
	L1D_cache_core[20]: Access = 8640, Miss = 8640, Miss_rate = 1.000, Pending_hits = 0, Reservation_fails = 2142
	L1D_cache_core[21]: Access = 8514, Miss = 8514, Miss_rate = 1.000, Pending_hits = 0, Reservation_fails = 1952
	L1D_cache_core[22]: Access = 8640, Miss = 8640, Miss_rate = 1.000, Pending_hits = 0, Reservation_fails = 2627
	L1D_cache_core[23]: Access = 8640, Miss = 8640, Miss_rate = 1.000, Pending_hits = 0, Reservation_fails = 2501
	L1D_cache_core[24]: Access = 8640, Miss = 8640, Miss_rate = 1.000, Pending_hits = 0, Reservation_fails = 2238
	L1D_cache_core[25]: Access = 8640, Miss = 8640, Miss_rate = 1.000, Pending_hits = 0, Reservation_fails = 2400
	L1D_cache_core[26]: Access = 8640, Miss = 8640, Miss_rate = 1.000, Pending_hits = 0, Reservation_fails = 2369
	L1D_cache_core[27]: Access = 8544, Miss = 8544, Miss_rate = 1.000, Pending_hits = 0, Reservation_fails = 2472
	L1D_cache_core[28]: Access = 8544, Miss = 8544, Miss_rate = 1.000, Pending_hits = 0, Reservation_fails = 2661
	L1D_cache_core[29]: Access = 8544, Miss = 8544, Miss_rate = 1.000, Pending_hits = 0, Reservation_fails = 2434
	L1D_total_cache_accesses = 256962
	L1D_total_cache_misses = 256962
	L1D_total_cache_miss_rate = 1.0000
	L1D_total_cache_pending_hits = 0
	L1D_total_cache_reservation_fails = 73829
	L1D_cache_data_port_util = 0.000
	L1D_cache_fill_port_util = 0.169
L1C_cache:
	L1C_total_cache_accesses = 0
	L1C_total_cache_misses = 0
	L1C_total_cache_pending_hits = 0
	L1C_total_cache_reservation_fails = 0
L1T_cache:
	L1T_total_cache_accesses = 0
	L1T_total_cache_misses = 0
	L1T_total_cache_pending_hits = 0
	L1T_total_cache_reservation_fails = 0

Total_core_cache_stats:
	Total_core_cache_stats_breakdown[GLOBAL_ACC_R][HIT] = 0
	Total_core_cache_stats_breakdown[GLOBAL_ACC_R][HIT_RESERVED] = 0
	Total_core_cache_stats_breakdown[GLOBAL_ACC_R][MISS] = 42828
	Total_core_cache_stats_breakdown[GLOBAL_ACC_R][RESERVATION_FAIL] = 72737
	Total_core_cache_stats_breakdown[GLOBAL_ACC_R][SECTOR_MISS] = 128480
	Total_core_cache_stats_breakdown[GLOBAL_ACC_R][MSHR_HIT] = 0
	Total_core_cache_stats_breakdown[LOCAL_ACC_R][HIT] = 0
	Total_core_cache_stats_breakdown[LOCAL_ACC_R][HIT_RESERVED] = 0
	Total_core_cache_stats_breakdown[LOCAL_ACC_R][MISS] = 0
	Total_core_cache_stats_breakdown[LOCAL_ACC_R][RESERVATION_FAIL] = 0
	Total_core_cache_stats_breakdown[LOCAL_ACC_R][SECTOR_MISS] = 0
	Total_core_cache_stats_breakdown[LOCAL_ACC_R][MSHR_HIT] = 0
	Total_core_cache_stats_breakdown[CONST_ACC_R][HIT] = 0
	Total_core_cache_stats_breakdown[CONST_ACC_R][HIT_RESERVED] = 0
	Total_core_cache_stats_breakdown[CONST_ACC_R][MISS] = 0
	Total_core_cache_stats_breakdown[CONST_ACC_R][RESERVATION_FAIL] = 0
	Total_core_cache_stats_breakdown[CONST_ACC_R][SECTOR_MISS] = 0
	Total_core_cache_stats_breakdown[CONST_ACC_R][MSHR_HIT] = 0
	Total_core_cache_stats_breakdown[TEXTURE_ACC_R][HIT] = 0
	Total_core_cache_stats_breakdown[TEXTURE_ACC_R][HIT_RESERVED] = 0
	Total_core_cache_stats_breakdown[TEXTURE_ACC_R][MISS] = 0
	Total_core_cache_stats_breakdown[TEXTURE_ACC_R][RESERVATION_FAIL] = 0
	Total_core_cache_stats_breakdown[TEXTURE_ACC_R][SECTOR_MISS] = 0
	Total_core_cache_stats_breakdown[TEXTURE_ACC_R][MSHR_HIT] = 0
	Total_core_cache_stats_breakdown[GLOBAL_ACC_W][HIT] = 0
	Total_core_cache_stats_breakdown[GLOBAL_ACC_W][HIT_RESERVED] = 0
	Total_core_cache_stats_breakdown[GLOBAL_ACC_W][MISS] = 21414
	Total_core_cache_stats_breakdown[GLOBAL_ACC_W][RESERVATION_FAIL] = 1092
	Total_core_cache_stats_breakdown[GLOBAL_ACC_W][SECTOR_MISS] = 64240
	Total_core_cache_stats_breakdown[GLOBAL_ACC_W][MSHR_HIT] = 0
	Total_core_cache_stats_breakdown[LOCAL_ACC_W][HIT] = 0
	Total_core_cache_stats_breakdown[LOCAL_ACC_W][HIT_RESERVED] = 0
	Total_core_cache_stats_breakdown[LOCAL_ACC_W][MISS] = 0
	Total_core_cache_stats_breakdown[LOCAL_ACC_W][RESERVATION_FAIL] = 0
	Total_core_cache_stats_breakdown[LOCAL_ACC_W][SECTOR_MISS] = 0
	Total_core_cache_stats_breakdown[LOCAL_ACC_W][MSHR_HIT] = 0
	Total_core_cache_stats_breakdown[L1_WRBK_ACC][HIT] = 0
	Total_core_cache_stats_breakdown[L1_WRBK_ACC][HIT_RESERVED] = 0
	Total_core_cache_stats_breakdown[L1_WRBK_ACC][MISS] = 0
	Total_core_cache_stats_breakdown[L1_WRBK_ACC][RESERVATION_FAIL] = 0
	Total_core_cache_stats_breakdown[L1_WRBK_ACC][SECTOR_MISS] = 0
	Total_core_cache_stats_breakdown[L1_WRBK_ACC][MSHR_HIT] = 0
	Total_core_cache_stats_breakdown[L2_WRBK_ACC][HIT] = 0
	Total_core_cache_stats_breakdown[L2_WRBK_ACC][HIT_RESERVED] = 0
	Total_core_cache_stats_breakdown[L2_WRBK_ACC][MISS] = 0
	Total_core_cache_stats_breakdown[L2_WRBK_ACC][RESERVATION_FAIL] = 0
	Total_core_cache_stats_breakdown[L2_WRBK_ACC][SECTOR_MISS] = 0
	Total_core_cache_stats_breakdown[L2_WRBK_ACC][MSHR_HIT] = 0
	Total_core_cache_stats_breakdown[INST_ACC_R][HIT] = 0
	Total_core_cache_stats_breakdown[INST_ACC_R][HIT_RESERVED] = 0
	Total_core_cache_stats_breakdown[INST_ACC_R][MISS] = 0
	Total_core_cache_stats_breakdown[INST_ACC_R][RESERVATION_FAIL] = 0
	Total_core_cache_stats_breakdown[INST_ACC_R][SECTOR_MISS] = 0
	Total_core_cache_stats_breakdown[INST_ACC_R][MSHR_HIT] = 0
	Total_core_cache_stats_breakdown[L1_WR_ALLOC_R][HIT] = 0
	Total_core_cache_stats_breakdown[L1_WR_ALLOC_R][HIT_RESERVED] = 0
	Total_core_cache_stats_breakdown[L1_WR_ALLOC_R][MISS] = 0
	Total_core_cache_stats_breakdown[L1_WR_ALLOC_R][RESERVATION_FAIL] = 0
	Total_core_cache_stats_breakdown[L1_WR_ALLOC_R][SECTOR_MISS] = 0
	Total_core_cache_stats_breakdown[L1_WR_ALLOC_R][MSHR_HIT] = 0
	Total_core_cache_stats_breakdown[L2_WR_ALLOC_R][HIT] = 0
	Total_core_cache_stats_breakdown[L2_WR_ALLOC_R][HIT_RESERVED] = 0
	Total_core_cache_stats_breakdown[L2_WR_ALLOC_R][MISS] = 0
	Total_core_cache_stats_breakdown[L2_WR_ALLOC_R][RESERVATION_FAIL] = 0
	Total_core_cache_stats_breakdown[L2_WR_ALLOC_R][SECTOR_MISS] = 0
	Total_core_cache_stats_breakdown[L2_WR_ALLOC_R][MSHR_HIT] = 0
	Total_core_cache_stats_breakdown[GLOBAL_ACC_R][TOTAL_ACCESS] = 171308
	Total_core_cache_stats_breakdown[GLOBAL_ACC_W][TOTAL_ACCESS] = 85654

Total_core_cache_fail_stats:
	Total_core_cache_fail_stats_breakdown[GLOBAL_ACC_R][MISS_QUEUE_FULL] = 72737
	Total_core_cache_fail_stats_breakdown[GLOBAL_ACC_W][MISS_QUEUE_FULL] = 1092
ctas_completed 2677, Shader 0 warp_id issue ditsribution:
warp_id:
0, 1, 2, 3, 4, 5, 6, 7, 8, 9, 10, 11, 12, 13, 14, 15, 16, 17, 18, 19, 20, 21, 22, 23, 24, 25, 26, 27, 28, 29, 30, 31, 
distro:
529, 529, 529, 529, 529, 529, 529, 529, 506, 506, 506, 506, 506, 506, 506, 506, 506, 506, 506, 506, 506, 506, 506, 506, 529, 529, 529, 529, 529, 529, 529, 529, 
gpgpu_n_tot_thrd_icount = 15761408
gpgpu_n_tot_w_icount = 492544
gpgpu_n_stall_shd_mem = 0
gpgpu_n_mem_read_local = 0
gpgpu_n_mem_write_local = 0
gpgpu_n_mem_read_global = 171308
gpgpu_n_mem_write_global = 85654
gpgpu_n_mem_texture = 0
gpgpu_n_mem_const = 0
gpgpu_n_load_insn  = 1370460
gpgpu_n_store_insn = 685230
gpgpu_n_shmem_insn = 0
gpgpu_n_sstarr_insn = 0
gpgpu_n_tex_insn = 0
gpgpu_n_const_mem_insn = 0
gpgpu_n_param_mem_insn = 2741248
gpgpu_n_shmem_bkconflict = 0
gpgpu_n_cache_bkconflict = 0
gpgpu_n_intrawarp_mshr_merge = 0
gpgpu_n_cmem_portconflict = 0
gpgpu_stall_shd_mem[c_mem][resource_stall] = 0
gpgpu_stall_shd_mem[s_mem][bk_conf] = 0
gpgpu_stall_shd_mem[gl_mem][resource_stall] = 0
gpgpu_stall_shd_mem[gl_mem][coal_stall] = 0
gpgpu_stall_shd_mem[gl_mem][data_port_stall] = 0
gpu_reg_bank_conflict_stalls = 0
Warp Occupancy Distribution:
Stall:220902	W0_Idle:77496	W0_Scoreboard:3261254	W1:0	W2:0	W3:0	W4:0	W5:0	W6:0	W7:0	W8:0	W9:0	W10:0	W11:0	W12:0	W13:0	W14:12	W15:0	W16:0	W17:0	W18:0	W19:0	W20:0	W21:0	W22:0	W23:0	W24:0	W25:0	W26:0	W27:0	W28:0	W29:0	W30:0	W31:0	W32:492532
single_issue_nums: WS0:123142	WS1:123142	WS2:123130	WS3:123130	
dual_issue_nums: WS0:0	WS1:0	WS2:0	WS3:0	
traffic_breakdown_coretomem[GLOBAL_ACC_R] = 1370464 {8:171308,}
traffic_breakdown_coretomem[GLOBAL_ACC_W] = 3426160 {40:85654,}
traffic_breakdown_memtocore[GLOBAL_ACC_R] = 6852320 {40:171308,}
traffic_breakdown_memtocore[GLOBAL_ACC_W] = 685232 {8:85654,}
maxmflatency = 1329 
max_icnt2mem_latency = 404 
maxmrqlatency = 720 
max_icnt2sh_latency = 119 
averagemflatency = 389 
avg_icnt2mem_latency = 50 
avg_mrq_latency = 80 
avg_icnt2sh_latency = 6 
mrq_lat_table:29231 	7307 	10067 	13030 	20297 	24129 	33376 	26424 	12558 	529 	0 	0 	0 	0 	0 	0 	0 	0 	0 	0 	0 	0 	0 	0 	0 	0 	0 	0 	0 	0 	0 	0 	
dq_lat_table:0 	0 	0 	0 	0 	0 	0 	0 	0 	0 	0 	0 	0 	0 	0 	0 	0 	0 	0 	0 	0 	0 	0 	0 	0 	0 	0 	0 	0 	0 	0 	0 	
mf_lat_table:0 	0 	0 	0 	0 	0 	0 	74271 	135121 	47418 	152 	0 	0 	0 	0 	0 	0 	0 	0 	0 	0 	0 	0 	0 	0 	0 	0 	0 	0 	0 	0 	0 	
icnt2mem_lat_table:0 	0 	0 	0 	0 	227258 	25198 	1701 	2805 	0 	0 	0 	0 	0 	0 	0 	0 	0 	0 	0 	0 	0 	0 	0 	
icnt2sh_lat_table:0 	175177 	34578 	20243 	16013 	9409 	1542 	0 	0 	0 	0 	0 	0 	0 	0 	0 	0 	0 	0 	0 	0 	0 	0 	0 	
mf_lat_pw_table:0 	0 	0 	0 	0 	0 	0 	6 	315 	13 	0 	0 	0 	0 	0 	0 	0 	0 	0 	0 	0 	0 	0 	0 	0 	0 	0 	0 	0 	0 	0 	0 	
maximum concurrent accesses to same row:
dram[0]:        64        64        64        64        64        64        64        64        64        64        64        64        64        64        64        64 
dram[1]:        64        64        64        64        64        64        64        64        64        64        64        64        64        64        64        64 
dram[2]:        64        64        64        64        64        64        64        64        64        64        64        64        64        64        64        64 
dram[3]:        64        64        64        64        64        64        64        64        64        64        64        64        64        64        64        64 
dram[4]:        64        64        64        64        64        64        64        64        64        64        64        64        64        64        64        64 
dram[5]:        64        64        64        64        64        64        64        64        64        64        64        64        64        64        64        64 
dram[6]:        64        64        64        64        64        64        64        64        64        64        64        64        64        64        64        64 
dram[7]:        64        64        64        64        64        64        64        64        64        64        64        64        64        64        64        64 
dram[8]:        64        64        64        64        64        64        64        64        64        64        64        64        64        64        64        64 
dram[9]:        64        64        64        64        64        64        64        64        64        64        64        64        64        64        64        64 
dram[10]:        64        64        64        64        64        64        64        64        64        64        64        64        64        64        64        64 
dram[11]:        64        64        64        64        64        64        64        64        64        64        64        64        64        64        64        64 
maximum service time to same row:
dram[0]:      8396      8387      8641      8640      5647      5709      5795      5790      5801      5802      7135      7138      7272      7273      7451      7464 
dram[1]:      8394      8395      8636      8641      5738      5677      5802      5801      5822      5822      7142      7141      7278      7284      7446      7450 
dram[2]:      8367      8386      8608      8615      5768      5616      5773      5794      5800      5813      7103      7110      7279      7283      7421      7424 
dram[3]:      8371      8375      8621      8623      5555      5585      5794      5794      5811      5810      7107      7108      7275      7298      7443      7440 
dram[4]:      8379      8389      8631      8630      5646      5707      5795      5790      5801      5802      7131      7133      7304      7289      7445      7455 
dram[5]:      8385      8387      8627      8630      5737      5676      5801      5800      5822      5822      7133      7133      7295      7305      7434      7459 
dram[6]:      8368      8372      8613      8619      5768      5616      5773      5794      5800      5813      7110      7116      7253      7258      7446      7442 
dram[7]:      8378      8381      8622      8625      5555      5585      5794      5794      5811      5810      7118      7120      7261      7268      7451      7456 
dram[8]:      8389      8389      8630      8633      5646      5707      5795      5790      5801      5802      7126      7136      7271      7273      7453      7456 
dram[9]:      8386      8389      8633      8634      5737      5676      5801      5800      5822      5822      7132      7136      7275      7275      7453      7454 
dram[10]:      8379      8383      8620      8626      5768      5616      5773      5794      5800      5813      7122      7111      7269      7260      7468      7459 
dram[11]:      8388      8391      8630      8632      5555      5585      5794      5794      5811      5810      7119      7117      7264      7283      7478      7473 
average row accesses per activate:
dram[0]: 32.275864 30.193548 25.944445 27.470589 28.967741 28.062500 30.933332 30.933332 25.971428 25.971428 29.866667 32.000000 20.799999 21.581396 33.103447 35.555557 
dram[1]: 29.125000 30.064516 27.470589 24.578947 29.096775 26.529411 27.176470 30.799999 24.000000 27.545454 29.866667 32.000000 23.794872 25.888889 30.967741 33.103447 
dram[2]: 26.514286 26.628571 27.470589 23.350000 24.486486 28.156250 30.896551 25.111111 27.545454 29.354839 27.151516 33.185184 23.200001 26.514286 30.000000 35.555557 
dram[3]: 28.242424 30.064516 26.571428 26.571428 31.172413 32.285713 24.888889 27.411764 28.375000 27.424242 29.866667 34.461540 25.777779 26.514286 34.285713 33.103447 
dram[4]: 28.242424 27.411764 26.685715 27.411764 25.828571 25.771429 26.628571 25.888889 25.942858 26.705883 30.896551 33.185184 25.081081 22.634146 34.285713 33.103447 
dram[5]: 29.000000 25.888889 28.060606 25.027027 31.137932 32.285713 22.190475 22.000000 30.366667 28.312500 30.896551 35.840000 24.315790 22.634146 34.285713 29.090910 
dram[6]: 29.935484 27.411764 25.722221 27.235294 30.166666 28.281250 28.903225 32.428570 33.629631 31.275862 29.866667 35.840000 22.439024 25.081081 33.103447 33.103447 
dram[7]: 24.526316 25.888889 25.135136 25.081081 23.736841 26.500000 24.888889 29.125000 32.535713 32.500000 30.896551 29.866667 26.285715 25.777779 34.285713 33.103447 
dram[8]: 31.066668 27.411764 27.235294 30.866667 25.857143 28.250000 28.242424 26.628571 31.413794 29.258064 30.896551 33.185184 24.864864 27.757576 33.103447 30.967741 
dram[9]: 24.526316 24.526316 26.457144 29.870968 27.303030 27.303030 23.299999 27.058823 31.413794 31.413794 27.151516 29.866667 22.095238 23.589743 33.103447 34.285713 
dram[10]: 30.933332 29.125000 23.150000 27.235294 24.351351 26.500000 24.216217 25.333334 29.419355 29.387096 28.903225 29.866667 23.000000 24.210526 30.000000 35.555557 
dram[11]: 30.064516 29.125000 28.212122 25.750000 25.027779 26.529411 28.903225 28.363636 30.299999 30.299999 30.896551 33.185184 20.622223 27.294117 35.555557 34.285713 
average row locality = 176948/6311 = 28.038029
number of total memory accesses made:
dram[0]:         0         0         0         0         0         0         0         0         0         0         0         0         0         0         0         0 
dram[1]:         0         0         0         0         0         0         0         0         0         0         0         0         0         0         0         0 
dram[2]:         0         0         0         0         0         0         0         0         0         0         0         0         0         0         0         0 
dram[3]:         0         0         0         0         0         0         0         0         0         0         0         0         0         0         0         0 
dram[4]:         0         0         0         0         0         0         0         0         0         0         0         0         0         0         0         0 
dram[5]:         0         0         0         0         0         0         0         0         0         0         0         0         0         0         0         0 
dram[6]:         0         0         0         0         0         0         0         0         0         0         0         0         0         0         0         0 
dram[7]:         0         0         0         0         0         0         0         0         0         0         0         0         0         0         0         0 
dram[8]:         0         0         0         0         0         0         0         0         0         0         0         0         0         0         0         0 
dram[9]:         0         0         0         0         0         0         0         0         0         0         0         0         0         0         0         0 
dram[10]:         0         0         0         0         0         0         0         0         0         0         0         0         0         0         0         0 
dram[11]:         0         0         0         0         0         0         0         0         0         0         0         0         0         0         0         0 
total accesses: 0
min_bank_accesses = 0!
min_chip_accesses = 0!
number of total read accesses:
dram[0]:       872       872       860       860       824       824       864       864       832       832       832       832       872       864       896       896 
dram[1]:       868       868       860       860       824       824       860       860       832       832       832       832       864       868       896       896 
dram[2]:       864       868       860       860       832       828       832       840       832       832       832       832       864       864       896       896 
dram[3]:       868       868       856       856       828       828       832       868       832       832       832       832       864       864       896       896 
dram[4]:       868       868       860       858       828       828       868       868       832       832       832       832       864       864       896       896 
dram[5]:       864       868       852       852       828       828       868       860       832       832       832       832       860       864       896       896 
dram[6]:       864       868       852       852       828       828       832       844       832       832       832       832       856       864       896       896 
dram[7]:       868       868       856       854       828       828       832       868       832       832       832       832       856       864       896       896 
dram[8]:       868       868       852       852       828       828       868       868       832       832       832       832       856       852       896       896 
dram[9]:       868       868       852       852       828       828       868       856       832       832       832       832       864       856       896       896 
dram[10]:       864       868       852       852       828       828       832       848       832       832       832       832       856       856       896       896 
dram[11]:       868       868       856       852       828       828       832       872       832       832       832       832       864       864       896       896 
total dram reads = 163840
bank skew: 896/824 = 1.09
chip skew: 13696/13604 = 1.01
number of total write accesses:
dram[0]:       256       256       296       296       296       296       256       256       308       308       256       256       256       256       256       256 
dram[1]:       256       256       296       296       312       312       256       256       320       308       256       256       256       256       256       256 
dram[2]:       256       256       296       296       296       292       256       256       308       312       256       256       256       256       256       256 
dram[3]:       256       256       296       296       304       304       256       256       304       292       256       256       256       256       256       256 
dram[4]:       256       256       296       296       304       296       256       256       304       304       256       256       256       256       256       256 
dram[5]:       256       256       296       296       300       304       256       256       316       296       256       256       256       256       256       256 
dram[6]:       256       256       296       296       308       308       256       256       304       300       256       256       256       256       256       256 
dram[7]:       256       256       296       296       296       292       256       256       316       312       256       256       256       256       256       256 
dram[8]:       256       256       296       296       308       304       256       256       316       300       256       256       256       256       256       256 
dram[9]:       256       256       296       296       292       292       256       256       316       316       256       256       256       256       256       256 
dram[10]:       256       256       296       296       292       292       256       256       320       316       256       256       256       256       256       256 
dram[11]:       256       256       300       300       292       296       256       256       308       308       256       256       256       256       256       256 
total dram writes = 52432
bank skew: 320/256 = 1.25
chip skew: 4404/4356 = 1.01
average mf latency per bank:
dram[0]:        480       493       444       459       456       462       464       472       467       479       449       458       446       447       453       460
dram[1]:        479       492       441       464       447       456       486       512       477       480       463       475       459       477       443       476
dram[2]:        475       478       439       465       476       474       478       500       480       496       463       484       445       456       438       458
dram[3]:        450       453       434       443       446       481       490       495       469       484       453       484       451       460       420       432
dram[4]:        469       471       427       435       445       460       474       506       462       467       458       479       454       464       438       456
dram[5]:        486       493       449       466       457       477       480       496       464       475       450       457       445       470       440       456
dram[6]:        466       485       453       467       465       476       511       519       490       489       461       476       448       457       441       445
dram[7]:        460       464       447       441       435       460       478       469       454       465       453       474       457       468       436       453
dram[8]:        445       474       421       434       449       460       464       490       457       483       453       481       450       461       441       450
dram[9]:        478       473       437       443       456       463       490       503       445       463       465       468       448       449       438       465
dram[10]:        469       486       425       455       477       474       485       487       467       478       445       450       438       441       434       446
dram[11]:        475       474       428       452       447       478       490       492       456       463       444       473       447       446       439       455
maximum mf latency per bank:
dram[0]:        975      1006       927       886       976       997       835       869       923       952       679       670       898       865       787      1003
dram[1]:        890       845       844       941       980       817       920       980       942       968       817       820       816      1139       834      1106
dram[2]:        769       833       783       856      1054       850       865       913       950      1063       801       927       676       961       871       871
dram[3]:        835       833       727       745       751       888       861       860       914       945       760       841       765       841       657       756
dram[4]:        865       855       661       714       869       878       841      1023       921       952       708       729       884      1123       859       907
dram[5]:        849       920       819       878       889      1066       858       904       942       966       751       822       832       908       939       895
dram[6]:        847       860       873       941       848       908      1068       913      1006       985       768       778       747      1136       764       771
dram[7]:       1037      1028       870       913       934      1046      1142      1100       914       917       704       756       804       829       673       731
dram[8]:        838       870       732       775       822       824       872       904       921       969       712       722       766       768       834       802
dram[9]:        857       751       753       753       820       979       863      1018       942       966       808       775       760       724       765       840
dram[10]:       1083       994       869       822      1035       873       935       913       950      1042       717       839       665      1329       763       729
dram[11]:        855       876       810       832       751       989       822       832       914       917       650       723       763      1015       757      1040

Number of Memory Banks Accessed per Memory Operation per Warp (from 0):
0	0	0	0	0	0	0	0	0	0	0	0	0	0	0	0	0	0	0	0	0	0	0	0	0	0	0	0	0	0	0	0	0	0	0	0	0	0	0	0	0	0	0	0	0	0	0	0	0	0	0	0	0	0	0	0	0	0	0	0	0	0	0	0	0	0	0	0	0	0	0	0	0	0	0	0	0	0	0	0	0	0	0	0	0	0	0	0	0	0	0	0	0	0	0	0	0	0	0	0	0	0	0	0	0	0	0	0	0	0	0	0	0	0	0	0	0	0	0	0	0	0	0	0	0	0	0	0	0	0	0	0	0	0	0	0	0	0	0	0	0	0	0	0	0	0	0	0	0	0	0	0	0	0	0	0	0	0	0	0	0	0	0	0	0	0	0	0	0	0	0	0	0	0	0	0	0	0	0	0	0	0	0	0	0	0	0	0	0	0	0	0	
Average # of Memory Banks Accessed per Memory Operation per Warp=-nan

position of mrq chosen
0	0	0	0	0	0	0	0	0	0	0	0	0	0	0	0	0	0	0	0	0	0	0	0	0	0	0	0	0	0	0	0	0	0	0	0	0	0	0	0	0	0	0	0	0	0	0	0	0	0	0	0	0	0	0	0	0	0	0	0	0	0	0	0	

average position of mrq chosen = -nan
Memory Partition 0: 
Cache L2_bank_000:
MSHR contents

Cache L2_bank_001:
MSHR contents

In Dram Latency Queue (total = 0): 
DRAM[0]: 16 bks, busW=2 BL=16 CL=24, tRRD=12 tCCD=4, tRCD=24 tRAS=55 tRP=24 tRC=78
n_cmd=99981 n_nop=80934 n_act=525 n_pre=509 n_ref_event=0 n_req=14786 n_rd=13696 n_rd_L2_A=0 n_write=0 n_wr_bk=4360 bw_util=0.7224
n_activity=80536 dram_eff=0.8968
bk0: 872a 78708i bk1: 872a 78136i bk2: 860a 75594i bk3: 860a 75699i bk4: 824a 79484i bk5: 824a 77946i bk6: 864a 79049i bk7: 864a 77750i bk8: 832a 80585i bk9: 832a 80248i bk10: 832a 79374i bk11: 832a 78701i bk12: 872a 80538i bk13: 864a 79948i bk14: 896a 77649i bk15: 896a 76622i 

------------------------------------------------------------------------

Row_Buffer_Locality = 0.964493
Row_Buffer_Locality_read = 0.974372
Row_Buffer_Locality_write = 0.840367
Bank_Level_Parallism = 4.604805
Bank_Level_Parallism_Col = 4.408663
Bank_Level_Parallism_Ready = 1.996696
write_to_read_ratio_blp_rw_average = 0.343973
GrpLevelPara = 3.237214 

BW Util details:
bwutil = 0.722377 
total_CMD = 99981 
util_bw = 72224 
Wasted_Col = 5867 
Wasted_Row = 492 
Idle = 21398 

BW Util Bottlenecks: 
RCDc_limit = 1640 
RCDWRc_limit = 215 
WTRc_limit = 4982 
RTWc_limit = 7709 
CCDLc_limit = 4468 
rwq = 0 
CCDLc_limit_alone = 3315 
WTRc_limit_alone = 4644 
RTWc_limit_alone = 6894 

Commands details: 
total_CMD = 99981 
n_nop = 80934 
Read = 13696 
Write = 0 
L2_Alloc = 0 
L2_WB = 4360 
n_act = 525 
n_pre = 509 
n_ref = 0 
n_req = 14786 
total_req = 18056 

Dual Bus Interface Util: 
issued_total_row = 1034 
issued_total_col = 18056 
Row_Bus_Util =  0.010342 
CoL_Bus_Util = 0.180594 
Either_Row_CoL_Bus_Util = 0.190506 
Issued_on_Two_Bus_Simul_Util = 0.000430 
issued_two_Eff = 0.002258 
queue_avg = 29.792271 


dram_util_bins: 0 0 0 0 0 0 0 0 0 0
dram_eff_bins: 0 0 0 0 0 0 0 0 0 0
mrqq: max=64 avg=29.7923
Memory Partition 1: 
Cache L2_bank_002:
MSHR contents

Cache L2_bank_003:
MSHR contents

In Dram Latency Queue (total = 0): 
DRAM[1]: 16 bks, busW=2 BL=16 CL=24, tRRD=12 tCCD=4, tRCD=24 tRAS=55 tRP=24 tRC=78
n_cmd=99981 n_nop=80899 n_act=528 n_pre=512 n_ref_event=0 n_req=14777 n_rd=13676 n_rd_L2_A=0 n_write=0 n_wr_bk=4404 bw_util=0.7233
n_activity=80664 dram_eff=0.8966
bk0: 868a 81673i bk1: 868a 79778i bk2: 860a 75386i bk3: 860a 73553i bk4: 824a 77853i bk5: 824a 77719i bk6: 860a 76616i bk7: 860a 76376i bk8: 832a 79228i bk9: 832a 79095i bk10: 832a 78535i bk11: 832a 76615i bk12: 864a 80760i bk13: 868a 79317i bk14: 896a 77833i bk15: 896a 76909i 

------------------------------------------------------------------------

Row_Buffer_Locality = 0.964269
Row_Buffer_Locality_read = 0.974188
Row_Buffer_Locality_write = 0.841054
Bank_Level_Parallism = 4.697969
Bank_Level_Parallism_Col = 4.502399
Bank_Level_Parallism_Ready = 2.061430
write_to_read_ratio_blp_rw_average = 0.365862
GrpLevelPara = 3.255430 

BW Util details:
bwutil = 0.723337 
total_CMD = 99981 
util_bw = 72320 
Wasted_Col = 6198 
Wasted_Row = 415 
Idle = 21048 

BW Util Bottlenecks: 
RCDc_limit = 1587 
RCDWRc_limit = 239 
WTRc_limit = 5729 
RTWc_limit = 9073 
CCDLc_limit = 5398 
rwq = 0 
CCDLc_limit_alone = 3694 
WTRc_limit_alone = 5229 
RTWc_limit_alone = 7869 

Commands details: 
total_CMD = 99981 
n_nop = 80899 
Read = 13676 
Write = 0 
L2_Alloc = 0 
L2_WB = 4404 
n_act = 528 
n_pre = 512 
n_ref = 0 
n_req = 14777 
total_req = 18080 

Dual Bus Interface Util: 
issued_total_row = 1040 
issued_total_col = 18080 
Row_Bus_Util =  0.010402 
CoL_Bus_Util = 0.180834 
Either_Row_CoL_Bus_Util = 0.190856 
Issued_on_Two_Bus_Simul_Util = 0.000380 
issued_two_Eff = 0.001991 
queue_avg = 31.422550 


dram_util_bins: 0 0 0 0 0 0 0 0 0 0
dram_eff_bins: 0 0 0 0 0 0 0 0 0 0
mrqq: max=64 avg=31.4226
Memory Partition 2: 
Cache L2_bank_004:
MSHR contents

Cache L2_bank_005:
MSHR contents

In Dram Latency Queue (total = 0): 
DRAM[2]: 16 bks, busW=2 BL=16 CL=24, tRRD=12 tCCD=4, tRCD=24 tRAS=55 tRP=24 tRC=78
n_cmd=99981 n_nop=80976 n_act=536 n_pre=520 n_ref_event=0 n_req=14722 n_rd=13632 n_rd_L2_A=0 n_write=0 n_wr_bk=4360 bw_util=0.7198
n_activity=80491 dram_eff=0.8941
bk0: 864a 79509i bk1: 868a 77976i bk2: 860a 76447i bk3: 860a 75308i bk4: 832a 77078i bk5: 828a 76603i bk6: 832a 80193i bk7: 840a 76813i bk8: 832a 80240i bk9: 832a 79901i bk10: 832a 79477i bk11: 832a 79750i bk12: 864a 82035i bk13: 864a 81198i bk14: 896a 77998i bk15: 896a 77949i 

------------------------------------------------------------------------

Row_Buffer_Locality = 0.963592
Row_Buffer_Locality_read = 0.973151
Row_Buffer_Locality_write = 0.844037
Bank_Level_Parallism = 4.573499
Bank_Level_Parallism_Col = 4.384706
Bank_Level_Parallism_Ready = 2.045902
write_to_read_ratio_blp_rw_average = 0.346118
GrpLevelPara = 3.223878 

BW Util details:
bwutil = 0.719817 
total_CMD = 99981 
util_bw = 71968 
Wasted_Col = 6052 
Wasted_Row = 572 
Idle = 21389 

BW Util Bottlenecks: 
RCDc_limit = 1648 
RCDWRc_limit = 232 
WTRc_limit = 4905 
RTWc_limit = 7848 
CCDLc_limit = 4661 
rwq = 0 
CCDLc_limit_alone = 3646 
WTRc_limit_alone = 4684 
RTWc_limit_alone = 7054 

Commands details: 
total_CMD = 99981 
n_nop = 80976 
Read = 13632 
Write = 0 
L2_Alloc = 0 
L2_WB = 4360 
n_act = 536 
n_pre = 520 
n_ref = 0 
n_req = 14722 
total_req = 17992 

Dual Bus Interface Util: 
issued_total_row = 1056 
issued_total_col = 17992 
Row_Bus_Util =  0.010562 
CoL_Bus_Util = 0.179954 
Either_Row_CoL_Bus_Util = 0.190086 
Issued_on_Two_Bus_Simul_Util = 0.000430 
issued_two_Eff = 0.002263 
queue_avg = 31.230734 


dram_util_bins: 0 0 0 0 0 0 0 0 0 0
dram_eff_bins: 0 0 0 0 0 0 0 0 0 0
mrqq: max=64 avg=31.2307
Memory Partition 3: 
Cache L2_bank_006:
MSHR contents

Cache L2_bank_007:
MSHR contents

In Dram Latency Queue (total = 2): 
Ready @ 39052 -   mf: uid=527053, sid4294967295:w4294967295, part=3, addr=0xc2bb4b80, store, size=128, L2_WRBK  status = IN_PARTITION_DRAM_LATENCY_QUEUE (38956), 
Ready @ 39065 -   mf: uid=527054, sid4294967295:w4294967295, part=3, addr=0xc2bb5780, store, size=128, L2_WRBK  status = IN_PARTITION_DRAM_LATENCY_QUEUE (38969), 
DRAM[3]: 16 bks, busW=2 BL=16 CL=24, tRRD=12 tCCD=4, tRCD=24 tRAS=55 tRP=24 tRC=78
n_cmd=99981 n_nop=81003 n_act=510 n_pre=494 n_ref_event=0 n_req=14741 n_rd=13652 n_rd_L2_A=0 n_write=0 n_wr_bk=4356 bw_util=0.7205
n_activity=80661 dram_eff=0.893
bk0: 868a 79898i bk1: 868a 79927i bk2: 856a 78144i bk3: 856a 76025i bk4: 828a 78562i bk5: 828a 78232i bk6: 832a 77079i bk7: 868a 77639i bk8: 832a 78563i bk9: 832a 78021i bk10: 832a 79684i bk11: 832a 77342i bk12: 864a 80188i bk13: 864a 79952i bk14: 896a 77396i bk15: 896a 76819i 

------------------------------------------------------------------------

Row_Buffer_Locality = 0.965403
Row_Buffer_Locality_read = 0.974582
Row_Buffer_Locality_write = 0.850321
Bank_Level_Parallism = 4.622057
Bank_Level_Parallism_Col = 4.434575
Bank_Level_Parallism_Ready = 1.996522
write_to_read_ratio_blp_rw_average = 0.354549
GrpLevelPara = 3.205151 

BW Util details:
bwutil = 0.720457 
total_CMD = 99981 
util_bw = 72032 
Wasted_Col = 6350 
Wasted_Row = 445 
Idle = 21154 

BW Util Bottlenecks: 
RCDc_limit = 1568 
RCDWRc_limit = 233 
WTRc_limit = 5133 
RTWc_limit = 8678 
CCDLc_limit = 5245 
rwq = 0 
CCDLc_limit_alone = 3774 
WTRc_limit_alone = 4813 
RTWc_limit_alone = 7527 

Commands details: 
total_CMD = 99981 
n_nop = 81003 
Read = 13652 
Write = 0 
L2_Alloc = 0 
L2_WB = 4356 
n_act = 510 
n_pre = 494 
n_ref = 0 
n_req = 14741 
total_req = 18008 

Dual Bus Interface Util: 
issued_total_row = 1004 
issued_total_col = 18008 
Row_Bus_Util =  0.010042 
CoL_Bus_Util = 0.180114 
Either_Row_CoL_Bus_Util = 0.189816 
Issued_on_Two_Bus_Simul_Util = 0.000340 
issued_two_Eff = 0.001792 
queue_avg = 30.187546 


dram_util_bins: 0 0 0 0 0 0 0 0 0 0
dram_eff_bins: 0 0 0 0 0 0 0 0 0 0
mrqq: max=64 avg=30.1875
Memory Partition 4: 
Cache L2_bank_008:
MSHR contents

Cache L2_bank_009:
MSHR contents

In Dram Latency Queue (total = 0): 
DRAM[4]: 16 bks, busW=2 BL=16 CL=24, tRRD=12 tCCD=4, tRCD=24 tRAS=55 tRP=24 tRC=78
n_cmd=99981 n_nop=80901 n_act=537 n_pre=521 n_ref_event=0 n_req=14784 n_rd=13694 n_rd_L2_A=0 n_write=0 n_wr_bk=4359 bw_util=0.7223
n_activity=80706 dram_eff=0.8948
bk0: 868a 79072i bk1: 868a 78243i bk2: 860a 75921i bk3: 858a 75508i bk4: 828a 79394i bk5: 828a 79050i bk6: 868a 78780i bk7: 868a 74022i bk8: 832a 79493i bk9: 832a 79769i bk10: 832a 79795i bk11: 832a 77740i bk12: 864a 82877i bk13: 864a 80439i bk14: 896a 76639i bk15: 896a 74371i 

------------------------------------------------------------------------

Row_Buffer_Locality = 0.963677
Row_Buffer_Locality_read = 0.973784
Row_Buffer_Locality_write = 0.836697
Bank_Level_Parallism = 4.650964
Bank_Level_Parallism_Col = 4.461740
Bank_Level_Parallism_Ready = 2.034490
write_to_read_ratio_blp_rw_average = 0.354389
GrpLevelPara = 3.241925 

BW Util details:
bwutil = 0.722257 
total_CMD = 99981 
util_bw = 72210 
Wasted_Col = 6131 
Wasted_Row = 548 
Idle = 21092 

BW Util Bottlenecks: 
RCDc_limit = 1500 
RCDWRc_limit = 298 
WTRc_limit = 5319 
RTWc_limit = 8899 
CCDLc_limit = 5185 
rwq = 0 
CCDLc_limit_alone = 3545 
WTRc_limit_alone = 4827 
RTWc_limit_alone = 7751 

Commands details: 
total_CMD = 99981 
n_nop = 80901 
Read = 13694 
Write = 0 
L2_Alloc = 0 
L2_WB = 4359 
n_act = 537 
n_pre = 521 
[...]

------------------------------------------------------------------------

Row_Buffer_Locality = 0.557626
Row_Buffer_Locality_read = 0.561412
Row_Buffer_Locality_write = 0.430614
Bank_Level_Parallism = 1.723298
Bank_Level_Parallism_Col = 1.604130
Bank_Level_Parallism_Ready = 1.322978
write_to_read_ratio_blp_rw_average = 0.080202
GrpLevelPara = 1.374765 

BW Util details:
bwutil = 0.012900 
total_CMD = 41530892 
util_bw = 535744 
Wasted_Col = 1043800 
Wasted_Row = 753118 
Idle = 39198230 

BW Util Bottlenecks: 
RCDc_limit = 1091601 
RCDWRc_limit = 18860 
WTRc_limit = 59525 
RTWc_limit = 54596 
CCDLc_limit = 61351 
rwq = 0 
CCDLc_limit_alone = 54879 
WTRc_limit_alone = 56050 
RTWc_limit_alone = 51599 

Commands details: 
total_CMD = 41530892 
n_nop = 41289604 
Read = 119668 
Write = 0 
L2_Alloc = 0 
L2_WB = 14268 
n_act = 54516 
n_pre = 54500 
n_ref = 0 
n_req = 123235 
total_req = 133936 

Dual Bus Interface Util: 
issued_total_row = 109016 
issued_total_col = 133936 
Row_Bus_Util =  0.002625 
CoL_Bus_Util = 0.003225 
Either_Row_CoL_Bus_Util = 0.005810 
Issued_on_Two_Bus_Simul_Util = 0.000040 
issued_two_Eff = 0.006896 
queue_avg = 0.137620 


dram_util_bins: 0 0 0 0 0 0 0 0 0 0
dram_eff_bins: 0 0 0 0 0 0 0 0 0 0
mrqq: max=64 avg=0.13762
Memory Partition 7: 
Cache L2_bank_014:
MSHR contents

Cache L2_bank_015:
MSHR contents

In Dram Latency Queue (total = 0): 
DRAM[7]: 16 bks, busW=2 BL=16 CL=24, tRRD=12 tCCD=4, tRCD=24 tRAS=55 tRP=24 tRC=78
n_cmd=41530892 n_nop=41289435 n_act=54616 n_pre=54600 n_ref_event=0 n_req=123158 n_rd=119593 n_rd_L2_A=0 n_write=0 n_wr_bk=14260 bw_util=0.01289
n_activity=3620377 dram_eff=0.1479
bk0: 7506a 41302812i bk1: 7505a 41301403i bk2: 7504a 41288620i bk3: 7488a 41290998i bk4: 7444a 41303571i bk5: 7435a 41304377i bk6: 7470a 41294829i bk7: 7508a 41296820i bk8: 7478a 41295153i bk9: 7474a 41298023i bk10: 7440a 41300218i bk11: 7446a 41296439i bk12: 7486a 41297373i bk13: 7523a 41296930i bk14: 7431a 41305822i bk15: 7455a 41300136i 

------------------------------------------------------------------------

Row_Buffer_Locality = 0.556537
Row_Buffer_Locality_read = 0.560443
Row_Buffer_Locality_write = 0.425526
Bank_Level_Parallism = 1.723959
Bank_Level_Parallism_Col = 1.603907
Bank_Level_Parallism_Ready = 1.331793
write_to_read_ratio_blp_rw_average = 0.080316
GrpLevelPara = 1.372364 

BW Util details:
bwutil = 0.012892 
total_CMD = 41530892 
util_bw = 535412 
Wasted_Col = 1043260 
Wasted_Row = 755328 
Idle = 39196892 

BW Util Bottlenecks: 
RCDc_limit = 1092612 
RCDWRc_limit = 18737 
WTRc_limit = 59478 
RTWc_limit = 56525 
CCDLc_limit = 60953 
rwq = 0 
CCDLc_limit_alone = 54600 
WTRc_limit_alone = 56315 
RTWc_limit_alone = 53335 

Commands details: 
total_CMD = 41530892 
n_nop = 41289435 
Read = 119593 
Write = 0 
L2_Alloc = 0 
L2_WB = 14260 
n_act = 54616 
n_pre = 54600 
n_ref = 0 
n_req = 123158 
total_req = 133853 

Dual Bus Interface Util: 
issued_total_row = 109216 
issued_total_col = 133853 
Row_Bus_Util =  0.002630 
CoL_Bus_Util = 0.003223 
Either_Row_CoL_Bus_Util = 0.005814 
Issued_on_Two_Bus_Simul_Util = 0.000039 
issued_two_Eff = 0.006676 
queue_avg = 0.132192 


dram_util_bins: 0 0 0 0 0 0 0 0 0 0
dram_eff_bins: 0 0 0 0 0 0 0 0 0 0
mrqq: max=64 avg=0.132192
Memory Partition 8: 
Cache L2_bank_016:
MSHR contents

Cache L2_bank_017:
MSHR contents

In Dram Latency Queue (total = 0): 
DRAM[8]: 16 bks, busW=2 BL=16 CL=24, tRRD=12 tCCD=4, tRCD=24 tRAS=55 tRP=24 tRC=78
n_cmd=41530892 n_nop=41288505 n_act=54947 n_pre=54931 n_ref_event=0 n_req=123376 n_rd=119808 n_rd_L2_A=0 n_write=0 n_wr_bk=14272 bw_util=0.01291
n_activity=3659181 dram_eff=0.1466
bk0: 7504a 41300074i bk1: 7518a 41300718i bk2: 7516a 41290731i bk3: 7513a 41291836i bk4: 7444a 41306537i bk5: 7458a 41307419i bk6: 7475a 41300490i bk7: 7496a 41298267i bk8: 7486a 41295400i bk9: 7518a 41296831i bk10: 7459a 41294144i bk11: 7499a 41288591i bk12: 7496a 41299226i bk13: 7510a 41303760i bk14: 7460a 41298604i bk15: 7456a 41298775i 

------------------------------------------------------------------------

Row_Buffer_Locality = 0.554638
Row_Buffer_Locality_read = 0.558293
Row_Buffer_Locality_write = 0.431895
Bank_Level_Parallism = 1.705226
Bank_Level_Parallism_Col = 1.584236
Bank_Level_Parallism_Ready = 1.317244
write_to_read_ratio_blp_rw_average = 0.080558
GrpLevelPara = 1.364736 

BW Util details:
bwutil = 0.012914 
total_CMD = 41530892 
util_bw = 536320 
Wasted_Col = 1057834 
Wasted_Row = 765281 
Idle = 39171457 

BW Util Bottlenecks: 
RCDc_limit = 1104073 
RCDWRc_limit = 18235 
WTRc_limit = 58826 
RTWc_limit = 56929 
CCDLc_limit = 60973 
rwq = 0 
CCDLc_limit_alone = 54373 
WTRc_limit_alone = 55401 
RTWc_limit_alone = 53754 

Commands details: 
total_CMD = 41530892 
n_nop = 41288505 
Read = 119808 
Write = 0 
L2_Alloc = 0 
L2_WB = 14272 
n_act = 54947 
n_pre = 54931 
n_ref = 0 
n_req = 123376 
total_req = 134080 

Dual Bus Interface Util: 
issued_total_row = 109878 
issued_total_col = 134080 
Row_Bus_Util =  0.002646 
CoL_Bus_Util = 0.003228 
Either_Row_CoL_Bus_Util = 0.005836 
Issued_on_Two_Bus_Simul_Util = 0.000038 
issued_two_Eff = 0.006481 
queue_avg = 0.128775 


dram_util_bins: 0 0 0 0 0 0 0 0 0 0
dram_eff_bins: 0 0 0 0 0 0 0 0 0 0
mrqq: max=64 avg=0.128775
Memory Partition 9: 
Cache L2_bank_018:
MSHR contents

Cache L2_bank_019:
MSHR contents

In Dram Latency Queue (total = 0): 
DRAM[9]: 16 bks, busW=2 BL=16 CL=24, tRRD=12 tCCD=4, tRCD=24 tRAS=55 tRP=24 tRC=78
n_cmd=41530892 n_nop=41289510 n_act=54500 n_pre=54484 n_ref_event=0 n_req=123304 n_rd=119736 n_rd_L2_A=0 n_write=0 n_wr_bk=14272 bw_util=0.01291
n_activity=3629637 dram_eff=0.1477
bk0: 7523a 41296271i bk1: 7517a 41298253i bk2: 7524a 41288453i bk3: 7508a 41289918i bk4: 7448a 41303298i bk5: 7448a 41303915i bk6: 7485a 41296259i bk7: 7463a 41302245i bk8: 7504a 41297254i bk9: 7476a 41296877i bk10: 7482a 41290440i bk11: 7469a 41294879i bk12: 7501a 41301186i bk13: 7458a 41303013i bk14: 7476a 41300495i bk15: 7454a 41304047i 

------------------------------------------------------------------------

Row_Buffer_Locality = 0.558003
Row_Buffer_Locality_read = 0.562112
Row_Buffer_Locality_write = 0.420123
Bank_Level_Parallism = 1.725842
Bank_Level_Parallism_Col = 1.611676
Bank_Level_Parallism_Ready = 1.326586
write_to_read_ratio_blp_rw_average = 0.081758
GrpLevelPara = 1.376216 

BW Util details:
bwutil = 0.012907 
total_CMD = 41530892 
util_bw = 536032 
Wasted_Col = 1043779 
Wasted_Row = 756003 
Idle = 39195078 

BW Util Bottlenecks: 
RCDc_limit = 1091358 
RCDWRc_limit = 18677 
WTRc_limit = 59108 
RTWc_limit = 57217 
CCDLc_limit = 60842 
rwq = 0 
CCDLc_limit_alone = 54527 
WTRc_limit_alone = 55999 
RTWc_limit_alone = 54011 

Commands details: 
total_CMD = 41530892 
n_nop = 41289510 
Read = 119736 
Write = 0 
L2_Alloc = 0 
L2_WB = 14272 
n_act = 54500 
n_pre = 54484 
n_ref = 0 
n_req = 123304 
total_req = 134008 

Dual Bus Interface Util: 
issued_total_row = 108984 
issued_total_col = 134008 
Row_Bus_Util =  0.002624 
CoL_Bus_Util = 0.003227 
Either_Row_CoL_Bus_Util = 0.005812 
Issued_on_Two_Bus_Simul_Util = 0.000039 
issued_two_Eff = 0.006670 
queue_avg = 0.133665 


dram_util_bins: 0 0 0 0 0 0 0 0 0 0
dram_eff_bins: 0 0 0 0 0 0 0 0 0 0
mrqq: max=64 avg=0.133665
Memory Partition 10: 
Cache L2_bank_020:
MSHR contents

Cache L2_bank_021:
MSHR contents

In Dram Latency Queue (total = 0): 
DRAM[10]: 16 bks, busW=2 BL=16 CL=24, tRRD=12 tCCD=4, tRCD=24 tRAS=55 tRP=24 tRC=78
n_cmd=41530892 n_nop=41289510 n_act=54565 n_pre=54549 n_ref_event=0 n_req=123185 n_rd=119616 n_rd_L2_A=0 n_write=0 n_wr_bk=14274 bw_util=0.0129
n_activity=3641021 dram_eff=0.1471
bk0: 7515a 41297656i bk1: 7528a 41300601i bk2: 7520a 41286632i bk3: 7496a 41291609i bk4: 7443a 41307633i bk5: 7457a 41305287i bk6: 7456a 41300682i bk7: 7477a 41295793i bk8: 7499a 41294056i bk9: 7492a 41298569i bk10: 7449a 41295561i bk11: 7452a 41292351i bk12: 7489a 41298155i bk13: 7466a 41299295i bk14: 7419a 41305588i bk15: 7458a 41307196i 

------------------------------------------------------------------------

Row_Buffer_Locality = 0.557048
Row_Buffer_Locality_read = 0.560912
Row_Buffer_Locality_write = 0.427571
Bank_Level_Parallism = 1.714219
Bank_Level_Parallism_Col = 1.603593
Bank_Level_Parallism_Ready = 1.325677
write_to_read_ratio_blp_rw_average = 0.082465
GrpLevelPara = 1.370186 

BW Util details:
bwutil = 0.012895 
total_CMD = 41530892 
util_bw = 535560 
Wasted_Col = 1048329 
Wasted_Row = 760934 
Idle = 39186069 

BW Util Bottlenecks: 
RCDc_limit = 1095034 
RCDWRc_limit = 18497 
WTRc_limit = 57200 
RTWc_limit = 58688 
CCDLc_limit = 60859 
rwq = 0 
CCDLc_limit_alone = 54203 
WTRc_limit_alone = 53927 
RTWc_limit_alone = 55305 

Commands details: 
total_CMD = 41530892 
n_nop = 41289510 
Read = 119616 
Write = 0 
L2_Alloc = 0 
L2_WB = 14274 
n_act = 54565 
n_pre = 54549 
n_ref = 0 
n_req = 123185 
total_req = 133890 

Dual Bus Interface Util: 
issued_total_row = 109114 
issued_total_col = 133890 
Row_Bus_Util =  0.002627 
CoL_Bus_Util = 0.003224 
Either_Row_CoL_Bus_Util = 0.005812 
Issued_on_Two_Bus_Simul_Util = 0.000039 
issued_two_Eff = 0.006720 
queue_avg = 0.131247 


dram_util_bins: 0 0 0 0 0 0 0 0 0 0
dram_eff_bins: 0 0 0 0 0 0 0 0 0 0
mrqq: max=64 avg=0.131247
Memory Partition 11: 
Cache L2_bank_022:
MSHR contents

Cache L2_bank_023:
MSHR contents

In Dram Latency Queue (total = 0): 
DRAM[11]: 16 bks, busW=2 BL=16 CL=24, tRRD=12 tCCD=4, tRCD=24 tRAS=55 tRP=24 tRC=78
n_cmd=41530892 n_nop=41288862 n_act=54786 n_pre=54770 n_ref_event=0 n_req=123376 n_rd=119809 n_rd_L2_A=0 n_write=0 n_wr_bk=14268 bw_util=0.01291
n_activity=3647357 dram_eff=0.147
bk0: 7512a 41301557i bk1: 7513a 41299687i bk2: 7521a 41292737i bk3: 7533a 41297059i bk4: 7444a 41302980i bk5: 7427a 41302249i bk6: 7438a 41295168i bk7: 7485a 41296292i bk8: 7533a 41291341i bk9: 7525a 41294337i bk10: 7449a 41295448i bk11: 7454a 41296408i bk12: 7557a 41295357i bk13: 7520a 41297642i bk14: 7447a 41300606i bk15: 7451a 41297583i 

------------------------------------------------------------------------

Row_Buffer_Locality = 0.555943
Row_Buffer_Locality_read = 0.559925
Row_Buffer_Locality_write = 0.422204
Bank_Level_Parallism = 1.719876
Bank_Level_Parallism_Col = 1.605307
Bank_Level_Parallism_Ready = 1.318164
write_to_read_ratio_blp_rw_average = 0.082224
GrpLevelPara = 1.370130 

BW Util details:
bwutil = 0.012913 
total_CMD = 41530892 
util_bw = 536308 
Wasted_Col = 1050241 
Wasted_Row = 762938 
Idle = 39181405 

BW Util Bottlenecks: 
RCDc_limit = 1097335 
RCDWRc_limit = 18870 
WTRc_limit = 54912 
RTWc_limit = 58174 
CCDLc_limit = 60428 
rwq = 0 
CCDLc_limit_alone = 53883 
WTRc_limit_alone = 51798 
RTWc_limit_alone = 54743 

Commands details: 
total_CMD = 41530892 
n_nop = 41288862 
Read = 119809 
Write = 0 
L2_Alloc = 0 
L2_WB = 14268 
n_act = 54786 
n_pre = 54770 
n_ref = 0 
n_req = 123376 
total_req = 134077 

Dual Bus Interface Util: 
issued_total_row = 109556 
issued_total_col = 134077 
Row_Bus_Util =  0.002638 
CoL_Bus_Util = 0.003228 
Either_Row_CoL_Bus_Util = 0.005828 
Issued_on_Two_Bus_Simul_Util = 0.000039 
issued_two_Eff = 0.006623 
queue_avg = 0.135808 


dram_util_bins: 0 0 0 0 0 0 0 0 0 0
dram_eff_bins: 0 0 0 0 0 0 0 0 0 0
mrqq: max=64 avg=0.135808

========= L2 cache stats =========
L2_cache_bank[0]: Access = 95025, Miss = 67032, Miss_rate = 0.705, Pending_hits = 1722, Reservation_fails = 4404
L2_cache_bank[1]: Access = 94493, Miss = 67081, Miss_rate = 0.710, Pending_hits = 1404, Reservation_fails = 4480
L2_cache_bank[2]: Access = 94124, Miss = 67063, Miss_rate = 0.712, Pending_hits = 1417, Reservation_fails = 4510
L2_cache_bank[3]: Access = 94833, Miss = 67080, Miss_rate = 0.707, Pending_hits = 1422, Reservation_fails = 4596
L2_cache_bank[4]: Access = 95044, Miss = 67058, Miss_rate = 0.706, Pending_hits = 1476, Reservation_fails = 4593
L2_cache_bank[5]: Access = 95618, Miss = 67034, Miss_rate = 0.701, Pending_hits = 1584, Reservation_fails = 4481
L2_cache_bank[6]: Access = 96113, Miss = 67007, Miss_rate = 0.697, Pending_hits = 1488, Reservation_fails = 4424
L2_cache_bank[7]: Access = 94565, Miss = 67039, Miss_rate = 0.709, Pending_hits = 1427, Reservation_fails = 4592
L2_cache_bank[8]: Access = 95222, Miss = 67001, Miss_rate = 0.704, Pending_hits = 1722, Reservation_fails = 4864
L2_cache_bank[9]: Access = 94651, Miss = 67028, Miss_rate = 0.708, Pending_hits = 1373, Reservation_fails = 4449
L2_cache_bank[10]: Access = 94160, Miss = 67037, Miss_rate = 0.712, Pending_hits = 1395, Reservation_fails = 4223
L2_cache_bank[11]: Access = 94012, Miss = 66986, Miss_rate = 0.713, Pending_hits = 1410, Reservation_fails = 4247
L2_cache_bank[12]: Access = 94407, Miss = 66993, Miss_rate = 0.710, Pending_hits = 1424, Reservation_fails = 4803
L2_cache_bank[13]: Access = 95333, Miss = 66947, Miss_rate = 0.702, Pending_hits = 1579, Reservation_fails = 4607
L2_cache_bank[14]: Access = 95048, Miss = 66895, Miss_rate = 0.704, Pending_hits = 1523, Reservation_fails = 4486
L2_cache_bank[15]: Access = 94374, Miss = 66970, Miss_rate = 0.710, Pending_hits = 1389, Reservation_fails = 5401
L2_cache_bank[16]: Access = 95177, Miss = 66980, Miss_rate = 0.704, Pending_hits = 1724, Reservation_fails = 4358
L2_cache_bank[17]: Access = 94835, Miss = 67108, Miss_rate = 0.708, Pending_hits = 1416, Reservation_fails = 4402
L2_cache_bank[18]: Access = 95037, Miss = 67083, Miss_rate = 0.706, Pending_hits = 1417, Reservation_fails = 4478
L2_cache_bank[19]: Access = 94388, Miss = 66933, Miss_rate = 0.709, Pending_hits = 1410, Reservation_fails = 4338
L2_cache_bank[20]: Access = 94377, Miss = 66930, Miss_rate = 0.709, Pending_hits = 1454, Reservation_fails = 4586
L2_cache_bank[21]: Access = 95471, Miss = 66964, Miss_rate = 0.701, Pending_hits = 1615, Reservation_fails = 5010
L2_cache_bank[22]: Access = 96009, Miss = 67041, Miss_rate = 0.698, Pending_hits = 1536, Reservation_fails = 5089
L2_cache_bank[23]: Access = 94807, Miss = 67048, Miss_rate = 0.707, Pending_hits = 1439, Reservation_fails = 4912
L2_total_cache_accesses = 2277123
L2_total_cache_misses = 1608338
L2_total_cache_miss_rate = 0.7063
L2_total_cache_pending_hits = 35766
L2_total_cache_reservation_fails = 110333
L2_total_cache_breakdown:
	L2_cache_stats_breakdown[GLOBAL_ACC_R][HIT] = 633019
	L2_cache_stats_breakdown[GLOBAL_ACC_R][HIT_RESERVED] = 35766
	L2_cache_stats_breakdown[GLOBAL_ACC_R][MISS] = 367033
	L2_cache_stats_breakdown[GLOBAL_ACC_R][RESERVATION_FAIL] = 110333
	L2_cache_stats_breakdown[GLOBAL_ACC_R][SECTOR_MISS] = 1069997
	L2_cache_stats_breakdown[GLOBAL_ACC_R][MSHR_HIT] = 35766
	L2_cache_stats_breakdown[LOCAL_ACC_R][HIT] = 0
	L2_cache_stats_breakdown[LOCAL_ACC_R][HIT_RESERVED] = 0
	L2_cache_stats_breakdown[LOCAL_ACC_R][MISS] = 0
	L2_cache_stats_breakdown[LOCAL_ACC_R][RESERVATION_FAIL] = 0
	L2_cache_stats_breakdown[LOCAL_ACC_R][SECTOR_MISS] = 0
	L2_cache_stats_breakdown[LOCAL_ACC_R][MSHR_HIT] = 0
	L2_cache_stats_breakdown[CONST_ACC_R][HIT] = 0
	L2_cache_stats_breakdown[CONST_ACC_R][HIT_RESERVED] = 0
	L2_cache_stats_breakdown[CONST_ACC_R][MISS] = 0
	L2_cache_stats_breakdown[CONST_ACC_R][RESERVATION_FAIL] = 0
	L2_cache_stats_breakdown[CONST_ACC_R][SECTOR_MISS] = 0
	L2_cache_stats_breakdown[CONST_ACC_R][MSHR_HIT] = 0
	L2_cache_stats_breakdown[TEXTURE_ACC_R][HIT] = 0
	L2_cache_stats_breakdown[TEXTURE_ACC_R][HIT_RESERVED] = 0
	L2_cache_stats_breakdown[TEXTURE_ACC_R][MISS] = 0
	L2_cache_stats_breakdown[TEXTURE_ACC_R][RESERVATION_FAIL] = 0
	L2_cache_stats_breakdown[TEXTURE_ACC_R][SECTOR_MISS] = 0
	L2_cache_stats_breakdown[TEXTURE_ACC_R][MSHR_HIT] = 0
	L2_cache_stats_breakdown[GLOBAL_ACC_W][HIT] = 0
	L2_cache_stats_breakdown[GLOBAL_ACC_W][HIT_RESERVED] = 0
	L2_cache_stats_breakdown[GLOBAL_ACC_W][MISS] = 42828
	L2_cache_stats_breakdown[GLOBAL_ACC_W][RESERVATION_FAIL] = 0
	L2_cache_stats_breakdown[GLOBAL_ACC_W][SECTOR_MISS] = 128480
	L2_cache_stats_breakdown[GLOBAL_ACC_W][MSHR_HIT] = 0
	L2_cache_stats_breakdown[LOCAL_ACC_W][HIT] = 0
	L2_cache_stats_breakdown[LOCAL_ACC_W][HIT_RESERVED] = 0
	L2_cache_stats_breakdown[LOCAL_ACC_W][MISS] = 0
	L2_cache_stats_breakdown[LOCAL_ACC_W][RESERVATION_FAIL] = 0
	L2_cache_stats_breakdown[LOCAL_ACC_W][SECTOR_MISS] = 0
	L2_cache_stats_breakdown[LOCAL_ACC_W][MSHR_HIT] = 0
	L2_cache_stats_breakdown[L1_WRBK_ACC][HIT] = 0
	L2_cache_stats_breakdown[L1_WRBK_ACC][HIT_RESERVED] = 0
	L2_cache_stats_breakdown[L1_WRBK_ACC][MISS] = 0
	L2_cache_stats_breakdown[L1_WRBK_ACC][RESERVATION_FAIL] = 0
	L2_cache_stats_breakdown[L1_WRBK_ACC][SECTOR_MISS] = 0
	L2_cache_stats_breakdown[L1_WRBK_ACC][MSHR_HIT] = 0
	L2_cache_stats_breakdown[L2_WRBK_ACC][HIT] = 0
	L2_cache_stats_breakdown[L2_WRBK_ACC][HIT_RESERVED] = 0
	L2_cache_stats_breakdown[L2_WRBK_ACC][MISS] = 0
	L2_cache_stats_breakdown[L2_WRBK_ACC][RESERVATION_FAIL] = 0
	L2_cache_stats_breakdown[L2_WRBK_ACC][SECTOR_MISS] = 0
	L2_cache_stats_breakdown[L2_WRBK_ACC][MSHR_HIT] = 0
	L2_cache_stats_breakdown[INST_ACC_R][HIT] = 0
	L2_cache_stats_breakdown[INST_ACC_R][HIT_RESERVED] = 0
	L2_cache_stats_breakdown[INST_ACC_R][MISS] = 0
	L2_cache_stats_breakdown[INST_ACC_R][RESERVATION_FAIL] = 0
	L2_cache_stats_breakdown[INST_ACC_R][SECTOR_MISS] = 0
	L2_cache_stats_breakdown[INST_ACC_R][MSHR_HIT] = 0
	L2_cache_stats_breakdown[L1_WR_ALLOC_R][HIT] = 0
	L2_cache_stats_breakdown[L1_WR_ALLOC_R][HIT_RESERVED] = 0
	L2_cache_stats_breakdown[L1_WR_ALLOC_R][MISS] = 0
	L2_cache_stats_breakdown[L1_WR_ALLOC_R][RESERVATION_FAIL] = 0
	L2_cache_stats_breakdown[L1_WR_ALLOC_R][SECTOR_MISS] = 0
	L2_cache_stats_breakdown[L1_WR_ALLOC_R][MSHR_HIT] = 0
	L2_cache_stats_breakdown[L2_WR_ALLOC_R][HIT] = 0
	L2_cache_stats_breakdown[L2_WR_ALLOC_R][HIT_RESERVED] = 0
	L2_cache_stats_breakdown[L2_WR_ALLOC_R][MISS] = 0
	L2_cache_stats_breakdown[L2_WR_ALLOC_R][RESERVATION_FAIL] = 0
	L2_cache_stats_breakdown[L2_WR_ALLOC_R][SECTOR_MISS] = 0
	L2_cache_stats_breakdown[L2_WR_ALLOC_R][MSHR_HIT] = 0
	L2_cache_stats_breakdown[GLOBAL_ACC_R][TOTAL_ACCESS] = 2105815
	L2_cache_stats_breakdown[GLOBAL_ACC_W][TOTAL_ACCESS] = 171308
L2_total_cache_reservation_fail_breakdown:
	L2_cache_stats_fail_breakdown[GLOBAL_ACC_R][MSHR_ENRTY_FAIL] = 92
	L2_cache_stats_fail_breakdown[GLOBAL_ACC_R][MSHR_MERGE_ENRTY_FAIL] = 110241
L2_cache_data_port_util = 0.002
L2_cache_fill_port_util = 0.004

icnt_total_pkts_mem_to_simt=2277123
icnt_total_pkts_simt_to_mem=2277123
LD_mem_lat_dist  0 0 0 0 0 0 0 0 0 0 0 0 0 0 0 0 0 0 0 0 0 0 0 0 0 0 0
ST_mem_lat_dist  0 0 0 0 0 0 0 0 0 0 0 0 0 0 0 0 0 0 0 0 0 0 0 0 0 0 0
----------------------------Interconnect-DETAILS--------------------------------
Req_Network_injected_packets_num = 2277123
Req_Network_cycles = 16194736
Req_Network_injected_packets_per_cycle =       0.1406 
Req_Network_conflicts_per_cycle =       0.0137
Req_Network_conflicts_per_cycle_util =       0.1900
Req_Bank_Level_Parallism =       1.9446
Req_Network_in_buffer_full_per_cycle =       0.0000
Req_Network_in_buffer_avg_util =       0.0080
Req_Network_out_buffer_full_per_cycle =       0.0000
Req_Network_out_buffer_avg_util =       0.0136

Reply_Network_injected_packets_num = 2277123
Reply_Network_cycles = 16194736
Reply_Network_injected_packets_per_cycle =        0.1406
Reply_Network_conflicts_per_cycle =        0.1202
Reply_Network_conflicts_per_cycle_util =       1.6681
Reply_Bank_Level_Parallism =       1.9509
Reply_Network_in_buffer_full_per_cycle =       0.0000
Reply_Network_in_buffer_avg_util =       0.0455
Reply_Network_out_buffer_full_per_cycle =       0.0000
Reply_Network_out_buffer_avg_util =       0.0047
----------------------------END-of-Interconnect-DETAILS-------------------------


gpgpu_simulation_time = 0 days, 8 hrs, 7 min, 17 sec (29237 sec)
gpgpu_simulation_rate = 3124 (inst/sec)
gpgpu_simulation_rate = 553 (cycle/sec)
gpgpu_silicon_slowdown = 2468354x
