

        *** GPGPU-Sim Simulator Version 4.2.0  [build gpgpu-sim_git-commit-5e9d31b8132651796656877ecb58fde27177ba7a_modified_303.0] ***


GPGPU-Sim PTX: simulation mode 0 (can change with PTX_SIM_MODE_FUNC environment variable:
               1=functional simulation only, 0=detailed performance simulator)
GPGPU-Sim PTX: overriding embedded ptx with ptx file (PTX_SIM_USE_PTX_FILE is set)
GPGPU-Sim: Configuration options:

-save_embedded_ptx                      0 # saves ptx files embedded in binary as <n>.ptx
-keep                                   0 # keep intermediate files created by GPGPU-Sim when interfacing with external programs
-gpgpu_ptx_save_converted_ptxplus                    0 # Saved converted ptxplus to a file
-gpgpu_occupancy_sm_number                   75 # The SM number to pass to ptxas when getting register usage for computing GPU occupancy. This parameter is required in the config.
-ptx_opcode_latency_int           4,4,4,4,21 # Opcode latencies for integers <ADD,MAX,MUL,MAD,DIV,SHFL>Default 1,1,19,25,145,32
-ptx_opcode_latency_fp           4,4,4,4,39 # Opcode latencies for single precision floating points <ADD,MAX,MUL,MAD,DIV>Default 1,1,1,1,30
-ptx_opcode_latency_dp      64,64,64,64,330 # Opcode latencies for double precision floating points <ADD,MAX,MUL,MAD,DIV>Default 8,8,8,8,335
-ptx_opcode_latency_sfu                   21 # Opcode latencies for SFU instructionsDefault 8
-ptx_opcode_latency_tesnor                   64 # Opcode latencies for Tensor instructionsDefault 64
-ptx_opcode_initiation_int            2,2,2,2,2 # Opcode initiation intervals for integers <ADD,MAX,MUL,MAD,DIV,SHFL>Default 1,1,4,4,32,4
-ptx_opcode_initiation_fp            2,2,2,2,4 # Opcode initiation intervals for single precision floating points <ADD,MAX,MUL,MAD,DIV>Default 1,1,1,1,5
-ptx_opcode_initiation_dp      64,64,64,64,130 # Opcode initiation intervals for double precision floating points <ADD,MAX,MUL,MAD,DIV>Default 8,8,8,8,130
-ptx_opcode_initiation_sfu                    8 # Opcode initiation intervals for sfu instructionsDefault 8
-ptx_opcode_initiation_tensor                   64 # Opcode initiation intervals for tensor instructionsDefault 64
-cdp_latency         7200,8000,100,12000,1600 # CDP API latency <cudaStreamCreateWithFlags, cudaGetParameterBufferV2_init_perWarp, cudaGetParameterBufferV2_perKernel, cudaLaunchDeviceV2_init_perWarp, cudaLaunchDevicV2_perKernel>Default 7200,8000,100,12000,1600
-network_mode                           2 # Interconnection network mode
-inter_config_file                   mesh # Interconnection network config file
-icnt_in_buffer_limit                  512 # in_buffer_limit
-icnt_out_buffer_limit                  512 # out_buffer_limit
-icnt_subnets                           2 # subnets
-icnt_arbiter_algo                      1 # arbiter_algo
-icnt_verbose                           0 # inct_verbose
-icnt_grant_cycles                      1 # grant_cycles
-gpgpu_ptx_use_cuobjdump                    1 # Use cuobjdump to extract ptx and sass from binaries
-gpgpu_experimental_lib_support                    0 # Try to extract code from cuda libraries [Broken because of unknown cudaGetExportTable]
-checkpoint_option                      0 #  checkpointing flag (0 = no checkpoint)
-checkpoint_kernel                      1 #  checkpointing during execution of which kernel (1- 1st kernel)
-checkpoint_CTA                         0 #  checkpointing after # of CTA (< less than total CTA)
-resume_option                          0 #  resume flag (0 = no resume)
-resume_kernel                          0 #  Resume from which kernel (1= 1st kernel)
-resume_CTA                             0 #  resume from which CTA 
-checkpoint_CTA_t                       0 #  resume from which CTA 
-checkpoint_insn_Y                      0 #  resume from which CTA 
-gpgpu_ptx_convert_to_ptxplus                    0 # Convert SASS (native ISA) to ptxplus and run ptxplus
-gpgpu_ptx_force_max_capability                   75 # Force maximum compute capability
-gpgpu_ptx_inst_debug_to_file                    0 # Dump executed instructions' debug information to file
-gpgpu_ptx_inst_debug_file       inst_debug.txt # Executed instructions' debug output file
-gpgpu_ptx_inst_debug_thread_uid                    1 # Thread UID for executed instructions' debug output
-gpgpu_simd_model                       1 # 1 = post-dominator
-gpgpu_shader_core_pipeline              1024:32 # shader core pipeline config, i.e., {<nthread>:<warpsize>}
-gpgpu_tex_cache:l1  N:4:128:256,L:R:m:N:L,T:512:8,128:2 # per-shader L1 texture cache  (READ-ONLY) config  {<nsets>:<bsize>:<assoc>,<rep>:<wr>:<alloc>:<wr_alloc>,<mshr>:<N>:<merge>,<mq>:<rf>}
-gpgpu_const_cache:l1 N:128:64:8,L:R:f:N:L,S:2:64,4 # per-shader L1 constant memory cache  (READ-ONLY) config  {<nsets>:<bsize>:<assoc>,<rep>:<wr>:<alloc>:<wr_alloc>,<mshr>:<N>:<merge>,<mq>} 
-gpgpu_cache:il1     N:64:128:16,L:R:f:N:L,S:2:48,4 # shader L1 instruction cache config  {<nsets>:<bsize>:<assoc>,<rep>:<wr>:<alloc>:<wr_alloc>,<mshr>:<N>:<merge>,<mq>} 
-gpgpu_cache:dl1     S:4:128:64,L:T:m:L:L,A:256:32,16:0,32 # per-shader L1 data cache config  {<nsets>:<bsize>:<assoc>,<rep>:<wr>:<alloc>:<wr_alloc>,<mshr>:<N>:<merge>,<mq> | none}
-gpgpu_l1_cache_write_ratio                   25 # L1D write ratio
-gpgpu_l1_banks                         4 # The number of L1 cache banks
-gpgpu_l1_banks_byte_interleaving                   32 # l1 banks byte interleaving granularity
-gpgpu_l1_banks_hashing_function                    0 # l1 banks hashing function
-gpgpu_l1_latency                      32 # L1 Hit Latency
-gpgpu_smem_latency                    30 # smem Latency
-gpgpu_cache:dl1PrefL1                 none # per-shader L1 data cache config  {<nsets>:<bsize>:<assoc>,<rep>:<wr>:<alloc>:<wr_alloc>,<mshr>:<N>:<merge>,<mq> | none}
-gpgpu_cache:dl1PrefShared                 none # per-shader L1 data cache config  {<nsets>:<bsize>:<assoc>,<rep>:<wr>:<alloc>:<wr_alloc>,<mshr>:<N>:<merge>,<mq> | none}
-gpgpu_gmem_skip_L1D                    0 # global memory access skip L1D cache (implements -Xptxas -dlcm=cg, default=no skip)
-gpgpu_perfect_mem                      0 # enable perfect memory mode (no cache miss)
-n_regfile_gating_group                    4 # group of lanes that should be read/written together)
-gpgpu_clock_gated_reg_file                    0 # enable clock gated reg file for power calculations
-gpgpu_clock_gated_lanes                    0 # enable clock gated lanes for power calculations
-gpgpu_shader_registers                65536 # Number of registers per shader core. Limits number of concurrent CTAs. (default 8192)
-gpgpu_registers_per_block                65536 # Maximum number of registers per CTA. (default 8192)
-gpgpu_ignore_resources_limitation                    0 # gpgpu_ignore_resources_limitation (default 0)
-gpgpu_shader_cta                      16 # Maximum number of concurrent CTAs in shader (default 32)
-gpgpu_num_cta_barriers                   16 # Maximum number of named barriers per CTA (default 16)
-gpgpu_n_clusters                      30 # number of processing clusters
-gpgpu_n_cores_per_cluster                    1 # number of simd cores per cluster
-gpgpu_n_cluster_ejection_buffer_size                   32 # number of packets in ejection buffer
-gpgpu_n_ldst_response_buffer_size                    2 # number of response packets in ld/st unit ejection buffer
-gpgpu_shmem_per_block                49152 # Size of shared memory per thread block or CTA (default 48kB)
-gpgpu_shmem_size                   65536 # Size of shared memory per shader core (default 16kB)
-gpgpu_shmem_option                 32,64 # Option list of shared memory sizes
-gpgpu_unified_l1d_size                   96 # Size of unified data cache(L1D + shared memory) in KB
-gpgpu_adaptive_cache_config                    1 # adaptive_cache_config
-gpgpu_shmem_sizeDefault                65536 # Size of shared memory per shader core (default 16kB)
-gpgpu_shmem_size_PrefL1                16384 # Size of shared memory per shader core (default 16kB)
-gpgpu_shmem_size_PrefShared                16384 # Size of shared memory per shader core (default 16kB)
-gpgpu_shmem_num_banks                   32 # Number of banks in the shared memory in each shader core (default 16)
-gpgpu_shmem_limited_broadcast                    0 # Limit shared memory to do one broadcast per cycle (default on)
-gpgpu_shmem_warp_parts                    1 # Number of portions a warp is divided into for shared memory bank conflict check 
-gpgpu_mem_unit_ports                    1 # The number of memory transactions allowed per core cycle
-gpgpu_shmem_warp_parts                    1 # Number of portions a warp is divided into for shared memory bank conflict check 
-gpgpu_warpdistro_shader                   -1 # Specify which shader core to collect the warp size distribution from
-gpgpu_warp_issue_shader                    0 # Specify which shader core to collect the warp issue distribution from
-gpgpu_local_mem_map                    1 # Mapping from local memory space address to simulated GPU physical address space (default = enabled)
-gpgpu_num_reg_banks                    8 # Number of register banks (default = 8)
-gpgpu_reg_bank_use_warp_id                    0 # Use warp ID in mapping registers to banks (default = off)
-gpgpu_sub_core_model                    1 # Sub Core Volta/Pascal model (default = off)
-gpgpu_enable_specialized_operand_collector                    0 # enable_specialized_operand_collector
-gpgpu_operand_collector_num_units_sp                    4 # number of collector units (default = 4)
-gpgpu_operand_collector_num_units_dp                    0 # number of collector units (default = 0)
-gpgpu_operand_collector_num_units_sfu                    4 # number of collector units (default = 4)
-gpgpu_operand_collector_num_units_int                    0 # number of collector units (default = 0)
-gpgpu_operand_collector_num_units_tensor_core                    4 # number of collector units (default = 4)
-gpgpu_operand_collector_num_units_mem                    2 # number of collector units (default = 2)
-gpgpu_operand_collector_num_units_gen                    8 # number of collector units (default = 0)
-gpgpu_operand_collector_num_in_ports_sp                    1 # number of collector unit in ports (default = 1)
-gpgpu_operand_collector_num_in_ports_dp                    0 # number of collector unit in ports (default = 0)
-gpgpu_operand_collector_num_in_ports_sfu                    1 # number of collector unit in ports (default = 1)
-gpgpu_operand_collector_num_in_ports_int                    0 # number of collector unit in ports (default = 0)
-gpgpu_operand_collector_num_in_ports_tensor_core                    1 # number of collector unit in ports (default = 1)
-gpgpu_operand_collector_num_in_ports_mem                    1 # number of collector unit in ports (default = 1)
-gpgpu_operand_collector_num_in_ports_gen                    8 # number of collector unit in ports (default = 0)
-gpgpu_operand_collector_num_out_ports_sp                    1 # number of collector unit in ports (default = 1)
-gpgpu_operand_collector_num_out_ports_dp                    0 # number of collector unit in ports (default = 0)
-gpgpu_operand_collector_num_out_ports_sfu                    1 # number of collector unit in ports (default = 1)
-gpgpu_operand_collector_num_out_ports_int                    0 # number of collector unit in ports (default = 0)
-gpgpu_operand_collector_num_out_ports_tensor_core                    1 # number of collector unit in ports (default = 1)
-gpgpu_operand_collector_num_out_ports_mem                    1 # number of collector unit in ports (default = 1)
-gpgpu_operand_collector_num_out_ports_gen                    8 # number of collector unit in ports (default = 0)
-gpgpu_coalesce_arch                   75 # Coalescing arch (GT200 = 13, Fermi = 20)
-gpgpu_num_sched_per_core                    4 # Number of warp schedulers per core
-gpgpu_max_insn_issue_per_warp                    1 # Max number of instructions that can be issued per warp in one cycle by scheduler (either 1 or 2)
-gpgpu_dual_issue_diff_exec_units                    1 # should dual issue use two different execution unit resources (Default = 1)
-gpgpu_simt_core_sim_order                    1 # Select the simulation order of cores in a cluster (0=Fix, 1=Round-Robin)
-gpgpu_pipeline_widths 4,4,4,4,4,4,4,4,4,4,8,4,4 # Pipeline widths ID_OC_SP,ID_OC_DP,ID_OC_INT,ID_OC_SFU,ID_OC_MEM,OC_EX_SP,OC_EX_DP,OC_EX_INT,OC_EX_SFU,OC_EX_MEM,EX_WB,ID_OC_TENSOR_CORE,OC_EX_TENSOR_CORE
-gpgpu_tensor_core_avail                    1 # Tensor Core Available (default=0)
-gpgpu_num_sp_units                     4 # Number of SP units (default=1)
-gpgpu_num_dp_units                     4 # Number of DP units (default=0)
-gpgpu_num_int_units                    4 # Number of INT units (default=0)
-gpgpu_num_sfu_units                    4 # Number of SF units (default=1)
-gpgpu_num_tensor_core_units                    4 # Number of tensor_core units (default=1)
-gpgpu_num_mem_units                    1 # Number if ldst units (default=1) WARNING: not hooked up to anything
-kernelBased                            1 # Does the approximator work as kernel based (default = 0)
-kernelId                               0 # Kernel ids where the approximation applied 
-hybridApproximation                    0 # Hybrid approximator (default = 0)
-errorPercentage                      100 # Error percentage (number of max flushed accesses)
-l1dApproximator                        1 # Memory access delete unit (default = 0)
-l1dSlicingAccessInterval                 5000 # Slice access window length (default = 1000)
-l2Approximator                         0 # Memory access delete unit (default = 0)
-l2SlicingAccessInterval                 5000 # Slice access window length (default = 1000)
-smOccupancy                            0 # sm occupancy (default = 0)
-smSlicingInterval                   5000 # Slice access window length (default = 1000)
-gpgpu_scheduler                      lrr # Scheduler configuration: < lrr | gto | two_level_active > If two_level_active:<num_active_warps>:<inner_prioritization>:<outer_prioritization>For complete list of prioritization values see shader.h enum scheduler_prioritization_typeDefault: gto
-gpgpu_concurrent_kernel_sm                    0 # Support concurrent kernels on a SM (default = disabled)
-gpgpu_perfect_inst_const_cache                    1 # perfect inst and const cache mode, so all inst and const hits in the cache(default = disabled)
-gpgpu_inst_fetch_throughput                    4 # the number of fetched intruction per warp each cycle
-gpgpu_reg_file_port_throughput                    2 # the number ports of the register file
-specialized_unit_1         0,4,4,4,4,BRA # specialized unit config {<enabled>,<num_units>:<latency>:<initiation>,<ID_OC_SPEC>:<OC_EX_SPEC>,<NAME>}
-specialized_unit_2         0,4,4,4,4,BRA # specialized unit config {<enabled>,<num_units>:<latency>:<initiation>,<ID_OC_SPEC>:<OC_EX_SPEC>,<NAME>}
-specialized_unit_3         0,4,4,4,4,BRA # specialized unit config {<enabled>,<num_units>:<latency>:<initiation>,<ID_OC_SPEC>:<OC_EX_SPEC>,<NAME>}
-specialized_unit_4         0,4,4,4,4,BRA # specialized unit config {<enabled>,<num_units>:<latency>:<initiation>,<ID_OC_SPEC>:<OC_EX_SPEC>,<NAME>}
-specialized_unit_5         0,4,4,4,4,BRA # specialized unit config {<enabled>,<num_units>:<latency>:<initiation>,<ID_OC_SPEC>:<OC_EX_SPEC>,<NAME>}
-specialized_unit_6         0,4,4,4,4,BRA # specialized unit config {<enabled>,<num_units>:<latency>:<initiation>,<ID_OC_SPEC>:<OC_EX_SPEC>,<NAME>}
-specialized_unit_7         0,4,4,4,4,BRA # specialized unit config {<enabled>,<num_units>:<latency>:<initiation>,<ID_OC_SPEC>:<OC_EX_SPEC>,<NAME>}
-specialized_unit_8         0,4,4,4,4,BRA # specialized unit config {<enabled>,<num_units>:<latency>:<initiation>,<ID_OC_SPEC>:<OC_EX_SPEC>,<NAME>}
-gpgpu_perf_sim_memcpy                    1 # Fill the L2 cache on memcpy
-gpgpu_simple_dram_model                    0 # simple_dram_model with fixed latency and BW
-gpgpu_dram_scheduler                    1 # 0 = fifo, 1 = FR-FCFS (defaul)
-gpgpu_dram_partition_queues          64:64:64:64 # i2$:$2d:d2$:$2i
-l2_ideal                               0 # Use a ideal L2 cache that always hit
-gpgpu_cache:dl2     S:64:128:16,L:B:m:L:P,A:192:4,32:0,32 # unified banked L2 data cache config  {<nsets>:<bsize>:<assoc>,<rep>:<wr>:<alloc>:<wr_alloc>,<mshr>:<N>:<merge>,<mq>}
-gpgpu_cache:dl2_texture_only                    0 # L2 cache used for texture only
-gpgpu_n_mem                           12 # number of memory modules (e.g. memory controllers) in gpu
-gpgpu_n_sub_partition_per_mchannel                    2 # number of memory subpartition in each memory module
-gpgpu_n_mem_per_ctrlr                    1 # number of memory chips per memory controller
-gpgpu_memlatency_stat                   14 # track and display latency statistics 0x2 enables MC, 0x4 enables queue logs
-gpgpu_frfcfs_dram_sched_queue_size                   64 # 0 = unlimited (default); # entries per chip
-gpgpu_dram_return_queue_size                  192 # 0 = unlimited (default); # entries per chip
-gpgpu_dram_buswidth                    2 # default = 4 bytes (8 bytes per cycle at DDR)
-gpgpu_dram_burst_length                   16 # Burst length of each DRAM request (default = 4 data bus cycle)
-dram_data_command_freq_ratio                    4 # Frequency ratio between DRAM data bus and command bus (default = 2 times, i.e. DDR)
-gpgpu_dram_timing_opt nbk=16:CCD=4:RRD=12:RCD=24:RAS=55:RP=24:RC=78:CL=24:WL=8:CDLR=10:WR=24:nbkgrp=4:CCDL=6:RTPL=4 # DRAM timing parameters = {nbk:tCCD:tRRD:tRCD:tRAS:tRP:tRC:CL:WL:tCDLR:tWR:nbkgrp:tCCDL:tRTPL}
-gpgpu_l2_rop_latency                  194 # ROP queue latency (default 85)
-dram_latency                          96 # DRAM latency (default 30)
-dram_dual_bus_interface                    0 # dual_bus_interface (default = 0) 
-dram_bnk_indexing_policy                    0 # dram_bnk_indexing_policy (0 = normal indexing, 1 = Xoring with the higher bits) (Default = 0)
-dram_bnkgrp_indexing_policy                    1 # dram_bnkgrp_indexing_policy (0 = take higher bits, 1 = take lower bits) (Default = 0)
-dram_seperate_write_queue_enable                    0 # Seperate_Write_Queue_Enable
-dram_write_queue_size             32:28:16 # Write_Queue_Size
-dram_elimnate_rw_turnaround                    0 # elimnate_rw_turnaround i.e set tWTR and tRTW = 0
-icnt_flit_size                        40 # icnt_flit_size
-icnt_flit_size                        40 # icnt_flit_size
-mem_profiler                           0 # memory access runtime profiling (0 = not enabled)
-gpgpu_mem_addr_mapping dramid@8;00000000.00000000.00000000.00000000.0000RRRR.RRRRRRRR.RBBBCCCC.BCCSSSSS # mapping memory address to dram model {dramid@<start bit>;<memory address map>}
-gpgpu_mem_addr_test                    0 # run sweep test to check address mapping for aliased address
-gpgpu_mem_address_mask                    1 # 0 = old addressing mask, 1 = new addressing mask, 2 = new add. mask + flipped bank sel and chip sel bits
-gpgpu_memory_partition_indexing                    0 # 0 = no indexing, 1 = bitwise xoring, 2 = IPoly, 3 = custom indexing
-accelwattch_xml_file accelwattch_sass_sim.xml # AccelWattch XML file
-power_simulation_enabled                    1 # Turn on power simulator (1=On, 0=Off)
-power_per_cycle_dump                    1 # Dump detailed power output each cycle
-hw_perf_file_name            hw_perf.csv # Hardware Performance Statistics file
-hw_perf_bench_name    hw_perf_bench_name # Kernel Name in Hardware Performance Statistics file
-power_simulation_mode                    0 # Switch performance counter input for power simulation (0=Sim, 1=HW, 2=HW-Sim Hybrid)
-dvfs_enabled                           1 # Turn on DVFS for power model
-aggregate_power_stats                    0 # Accumulate power across all kernels
-accelwattch_hybrid_perfsim_L1_RH                    0 # Get L1 Read Hits for Accelwattch-Hybrid from Accel-Sim
-accelwattch_hybrid_perfsim_L1_RM                    0 # Get L1 Read Misses for Accelwattch-Hybrid from Accel-Sim
-accelwattch_hybrid_perfsim_L1_WH                    0 # Get L1 Write Hits for Accelwattch-Hybrid from Accel-Sim
-accelwattch_hybrid_perfsim_L1_WM                    0 # Get L1 Write Misses for Accelwattch-Hybrid from Accel-Sim
-accelwattch_hybrid_perfsim_L2_RH                    0 # Get L2 Read Hits for Accelwattch-Hybrid from Accel-Sim
-accelwattch_hybrid_perfsim_L2_RM                    0 # Get L2 Read Misses for Accelwattch-Hybrid from Accel-Sim
-accelwattch_hybrid_perfsim_L2_WH                    0 # Get L2 Write Hits for Accelwattch-Hybrid from Accel-Sim
-accelwattch_hybrid_perfsim_L2_WM                    0 # Get L2 Write Misses for Accelwattch-Hybrid from Accel-Sim
-accelwattch_hybrid_perfsim_CC_ACC                    0 # Get Constant Cache Acesses for Accelwattch-Hybrid from Accel-Sim
-accelwattch_hybrid_perfsim_SHARED_ACC                    0 # Get Shared Memory Acesses for Accelwattch-Hybrid from Accel-Sim
-accelwattch_hybrid_perfsim_DRAM_RD                    0 # Get DRAM Reads for Accelwattch-Hybrid from Accel-Sim
-accelwattch_hybrid_perfsim_DRAM_WR                    0 # Get DRAM Writes for Accelwattch-Hybrid from Accel-Sim
-accelwattch_hybrid_perfsim_NOC                    0 # Get Interconnect Acesses for Accelwattch-Hybrid from Accel-Sim
-accelwattch_hybrid_perfsim_PIPE_DUTY                    0 # Get Pipeline Duty Cycle Acesses for Accelwattch-Hybrid from Accel-Sim
-accelwattch_hybrid_perfsim_NUM_SM_IDLE                    0 # Get Number of Idle SMs for Accelwattch-Hybrid from Accel-Sim
-accelwattch_hybrid_perfsim_CYCLES                    0 # Get Executed Cycles for Accelwattch-Hybrid from Accel-Sim
-accelwattch_hybrid_perfsim_VOLTAGE                    0 # Get Chip Voltage for Accelwattch-Hybrid from Accel-Sim
-power_trace_enabled                    0 # produce a file for the power trace (1=On, 0=Off)
-power_trace_zlevel                     0 # Compression level of the power trace output log (0=no comp, 9=highest)
-steady_power_levels_enabled                    0 # produce a file for the steady power levels (1=On, 0=Off)
-steady_state_definition                  8:4 # allowed deviation:number of samples
-gpgpu_max_cycle                        0 # terminates gpu simulation early (0 = no limit)
-gpgpu_max_insn                         0 # terminates gpu simulation early (0 = no limit)
-gpgpu_max_cta                          0 # terminates gpu simulation early (0 = no limit)
-gpgpu_max_completed_cta                    0 # terminates gpu simulation early (0 = no limit)
-gpgpu_runtime_stat                  1000 # display runtime statistics such as dram utilization {<freq>:<flag>}
-liveness_message_freq                    1 # Minimum number of seconds between simulation liveness messages (0 = always print)
-gpgpu_compute_capability_major                    7 # Major compute capability version number
-gpgpu_compute_capability_minor                    5 # Minor compute capability version number
-gpgpu_flush_l1_cache                    1 # Flush L1 cache at the end of each kernel call
-gpgpu_flush_l2_cache                    0 # Flush L2 cache at the end of each kernel call
-gpgpu_deadlock_detect                    1 # Stop the simulation at deadlock (1=on (default), 0=off)
-gpgpu_ptx_instruction_classification                    0 # if enabled will classify ptx instruction types per kernel (Max 255 kernels now)
-gpgpu_ptx_sim_mode                     0 # Select between Performance (default) or Functional simulation (1)
-gpgpu_clock_domains 1365:1365:1365:3500.5 # Clock Domain Frequencies in MhZ {<Core Clock>:<ICNT Clock>:<L2 Clock>:<DRAM Clock>}
-gpgpu_max_concurrent_kernel                  128 # maximum kernels that can run concurrently on GPU, set this value according to max resident grids for your compute capability
-gpgpu_cflog_interval                    0 # Interval between each snapshot in control flow logger
-visualizer_enabled                     0 # Turn on visualizer output (1=On, 0=Off)
-visualizer_outputfile                 NULL # Specifies the output log file for visualizer
-visualizer_zlevel                      6 # Compression level of the visualizer output log (0=no comp, 9=highest)
-gpgpu_stack_size_limit                 1024 # GPU thread stack size
-gpgpu_heap_size_limit              8388608 # GPU malloc heap size 
-gpgpu_runtime_sync_depth_limit                    2 # GPU device runtime synchronize depth
-gpgpu_runtime_pending_launch_count_limit                 2048 # GPU device runtime pending launch count
-trace_enabled                          0 # Turn on traces
-trace_components                    none # comma seperated list of traces to enable. Complete list found in trace_streams.tup. Default none
-trace_sampling_core                    0 # The core which is printed using CORE_DPRINTF. Default 0
-trace_sampling_memory_partition                   -1 # The memory partition which is printed using MEMPART_DPRINTF. Default -1 (i.e. all)
-enable_ptx_file_line_stats                    1 # Turn on PTX source line statistic profiling. (1 = On)
-ptx_line_stats_filename gpgpu_inst_stats.txt # Output file for PTX source line statistics.
-gpgpu_kernel_launch_latency                 5000 # Kernel launch latency in cycles. Default: 0
-gpgpu_cdp_enabled                      0 # Turn on CDP
-gpgpu_TB_launch_latency                    0 # thread block launch latency in cycles. Default: 0
-mem_runtime_stat                     100 # memory access runtime profiling sampling freq
-L1D_metrics                            0 # memory access runtime profiling for L1 data cache
-noncoal_metrics                        0 # memory access runtime profiling for shared memory
-L2_metrics                             0 # memory access runtime profiling for L2 cache
-DRAM_metrics                           0 # memory access runtime profiling for DRAM
-Shmem_metrics                          0 # memory access runtime profiling for noncoalesced accesses
-store_enable                           0 # Enable stores for memory profiling
-accumulate_stats                       0 # Accumulate stats for the memory profiling
-dump_enable                            0 # Process dump enable flag - (def = 0)
-flush_l1d                              0 # Enable flushings for L1D caches - (default = 0)
-flush_l2                               0 # Enable flushings for L2 caches - (default = 0)
-flush_dram                             0 # Enable flushings for DRAM - (default = 0)
-flush_noncoalesceds                    0 # Enable flushings for non coalesced accesses - (default = 0)
-flush_shmems                           0 # Enable flushings for shared memory accesses - (default = 0)
-error_percentage                       2 # Error percentage for the flushes - (default = 1)
-flush_acc_type                         2 # Flush access types
-monitor_sampling_cycle                  200 # Monitoring sampling cycle - (default = 5000)
DRAM Timing Options:
nbk                                    16 # number of banks
CCD                                     4 # column to column delay
RRD                                    12 # minimal delay between activation of rows in different banks
RCD                                    24 # row to column delay
RAS                                    55 # time needed to activate row
RP                                     24 # time needed to precharge (deactivate) row
RC                                     78 # row cycle time
CDLR                                   10 # switching from write to read (changes tWTR)
WR                                     24 # last data-in to row precharge
CL                                     24 # CAS latency
WL                                      8 # Write latency
nbkgrp                                  4 # number of bank groups
CCDL                                    6 # column to column delay between accesses to different bank groups
RTPL                                    4 # read to precharge delay between accesses to different bank groups
Total number of memory sub partition = 24
addr_dec_mask[CHIP]  = 0000000000000000 	high:64 low:0
addr_dec_mask[BK]    = 0000000000007080 	high:15 low:7
addr_dec_mask[ROW]   = 000000000fff8000 	high:28 low:15
addr_dec_mask[COL]   = 0000000000000f7f 	high:12 low:0
addr_dec_mask[BURST] = 000000000000001f 	high:5 low:0
sub_partition_id_mask = 0000000000000080
GPGPU-Sim uArch: clock freqs: 1365000000.000000:1365000000.000000:1365000000.000000:3500500000.000000
GPGPU-Sim uArch: clock periods: 0.00000000073260073260:0.00000000073260073260:0.00000000073260073260:0.00000000028567347522
*** Initializing Memory Statistics ***
GPGPU-Sim uArch: performance model initialization complete.
--------------------------------------------------------------
L1D access stats (for 0'th SM) 
--	Kid = 0 || L1D Acc = 144673, -- Miss = 83448, rate = 0.5768, -- PendHits = 2218, rate = 0.0153-- ResFail = 135249, rate = 0.9349
Error Per = 100 || Flushes = 834 || slicingInterval = 5000
--	Kid = 1 || L1D Acc = 1387, -- Miss = 281, rate = 0.2026, -- PendHits = 85, rate = 0.0613-- ResFail = 105, rate = 0.0757
Error Per = 100 || Flushes = 2 || slicingInterval = 5000
--	Kid = 2 || L1D Acc = 124326, -- Miss = 81407, rate = 0.6548, -- PendHits = 2615, rate = 0.0210-- ResFail = 169223, rate = 1.3611
Error Per = 100 || Flushes = 814 || slicingInterval = 5000
--	Kid = 3 || L1D Acc = 170, -- Miss = 97, rate = 0.5706, -- PendHits = 4, rate = 0.0235-- ResFail = 109, rate = 0.6412
Error Per = 100 || Flushes = 0 || slicingInterval = 5000
--	Kid = 4 || L1D Acc = 122165, -- Miss = 81179, rate = 0.6645, -- PendHits = 2804, rate = 0.0230-- ResFail = 183800, rate = 1.5045
Error Per = 100 || Flushes = 811 || slicingInterval = 5000
--	Kid = 5 || L1D Acc = 120, -- Miss = 96, rate = 0.8000, -- PendHits = 0, rate = 0.0000-- ResFail = 103, rate = 0.8583
Error Per = 100 || Flushes = 0 || slicingInterval = 5000
--------------------------------------------------------------
L1D access stats (for 1'th SM) 
--	Kid = 0 || L1D Acc = 127698, -- Miss = 76127, rate = 0.5961, -- PendHits = 2190, rate = 0.0171-- ResFail = 117450, rate = 0.9197
Error Per = 100 || Flushes = 761 || slicingInterval = 5000
--	Kid = 1 || L1D Acc = 1372, -- Miss = 273, rate = 0.1990, -- PendHits = 342, rate = 0.2493-- ResFail = 111, rate = 0.0809
Error Per = 100 || Flushes = 2 || slicingInterval = 5000
--	Kid = 2 || L1D Acc = 110149, -- Miss = 73355, rate = 0.6660, -- PendHits = 2417, rate = 0.0219-- ResFail = 153227, rate = 1.3911
Error Per = 100 || Flushes = 733 || slicingInterval = 5000
--	Kid = 3 || L1D Acc = 183, -- Miss = 104, rate = 0.5683, -- PendHits = 32, rate = 0.1749-- ResFail = 103, rate = 0.5628
Error Per = 100 || Flushes = 1 || slicingInterval = 5000
--	Kid = 4 || L1D Acc = 107993, -- Miss = 73186, rate = 0.6777, -- PendHits = 2612, rate = 0.0242-- ResFail = 162431, rate = 1.5041
Error Per = 100 || Flushes = 731 || slicingInterval = 5000
--	Kid = 5 || L1D Acc = 120, -- Miss = 97, rate = 0.8083, -- PendHits = 23, rate = 0.1917-- ResFail = 108, rate = 0.9000
Error Per = 100 || Flushes = 0 || slicingInterval = 5000
--------------------------------------------------------------
L1D access stats (for 2'th SM) 
--	Kid = 0 || L1D Acc = 127622, -- Miss = 74917, rate = 0.5870, -- PendHits = 2141, rate = 0.0168-- ResFail = 119551, rate = 0.9368
Error Per = 100 || Flushes = 749 || slicingInterval = 5000
--	Kid = 1 || L1D Acc = 1483, -- Miss = 279, rate = 0.1881, -- PendHits = 356, rate = 0.2401-- ResFail = 141, rate = 0.0951
Error Per = 100 || Flushes = 2 || slicingInterval = 5000
--	Kid = 2 || L1D Acc = 109909, -- Miss = 72849, rate = 0.6628, -- PendHits = 2484, rate = 0.0226-- ResFail = 142732, rate = 1.2986
Error Per = 100 || Flushes = 728 || slicingInterval = 5000
--	Kid = 3 || L1D Acc = 171, -- Miss = 102, rate = 0.5965, -- PendHits = 30, rate = 0.1754-- ResFail = 109, rate = 0.6374
Error Per = 100 || Flushes = 1 || slicingInterval = 5000
--	Kid = 4 || L1D Acc = 107432, -- Miss = 72588, rate = 0.6757, -- PendHits = 2520, rate = 0.0235-- ResFail = 161408, rate = 1.5024
Error Per = 100 || Flushes = 725 || slicingInterval = 5000
--	Kid = 5 || L1D Acc = 120, -- Miss = 97, rate = 0.8083, -- PendHits = 23, rate = 0.1917-- ResFail = 109, rate = 0.9083
Error Per = 100 || Flushes = 0 || slicingInterval = 5000
--------------------------------------------------------------
L1D access stats (for 3'th SM) 
--	Kid = 0 || L1D Acc = 141730, -- Miss = 81727, rate = 0.5766, -- PendHits = 2323, rate = 0.0164-- ResFail = 137143, rate = 0.9676
Error Per = 100 || Flushes = 817 || slicingInterval = 5000
--	Kid = 1 || L1D Acc = 1517, -- Miss = 305, rate = 0.2011, -- PendHits = 382, rate = 0.2518-- ResFail = 170, rate = 0.1121
Error Per = 100 || Flushes = 3 || slicingInterval = 5000
--	Kid = 2 || L1D Acc = 122134, -- Miss = 80330, rate = 0.6577, -- PendHits = 2852, rate = 0.0234-- ResFail = 162461, rate = 1.3302
Error Per = 100 || Flushes = 803 || slicingInterval = 5000
--	Kid = 3 || L1D Acc = 195, -- Miss = 103, rate = 0.5282, -- PendHits = 39, rate = 0.2000-- ResFail = 103, rate = 0.5282
Error Per = 100 || Flushes = 1 || slicingInterval = 5000
--	Kid = 4 || L1D Acc = 118716, -- Miss = 79825, rate = 0.6724, -- PendHits = 2749, rate = 0.0232-- ResFail = 181005, rate = 1.5247
Error Per = 100 || Flushes = 798 || slicingInterval = 5000
--	Kid = 5 || L1D Acc = 120, -- Miss = 97, rate = 0.8083, -- PendHits = 8, rate = 0.0667-- ResFail = 103, rate = 0.8583
Error Per = 100 || Flushes = 0 || slicingInterval = 5000
--------------------------------------------------------------
L1D access stats (for 4'th SM) 
--	Kid = 0 || L1D Acc = 128035, -- Miss = 75942, rate = 0.5931, -- PendHits = 2249, rate = 0.0176-- ResFail = 117095, rate = 0.9146
Error Per = 100 || Flushes = 759 || slicingInterval = 5000
--	Kid = 1 || L1D Acc = 1498, -- Miss = 304, rate = 0.2029, -- PendHits = 337, rate = 0.2250-- ResFail = 146, rate = 0.0975
Error Per = 100 || Flushes = 3 || slicingInterval = 5000
--	Kid = 2 || L1D Acc = 111881, -- Miss = 73161, rate = 0.6539, -- PendHits = 2614, rate = 0.0234-- ResFail = 139451, rate = 1.2464
Error Per = 100 || Flushes = 731 || slicingInterval = 5000
--	Kid = 3 || L1D Acc = 194, -- Miss = 105, rate = 0.5412, -- PendHits = 35, rate = 0.1804-- ResFail = 103, rate = 0.5309
Error Per = 100 || Flushes = 1 || slicingInterval = 5000
--	Kid = 4 || L1D Acc = 108905, -- Miss = 72860, rate = 0.6690, -- PendHits = 2514, rate = 0.0231-- ResFail = 157487, rate = 1.4461
Error Per = 100 || Flushes = 728 || slicingInterval = 5000
--	Kid = 5 || L1D Acc = 120, -- Miss = 97, rate = 0.8083, -- PendHits = 23, rate = 0.1917-- ResFail = 108, rate = 0.9000
Error Per = 100 || Flushes = 0 || slicingInterval = 5000
--------------------------------------------------------------
L1D access stats (for 5'th SM) 
--	Kid = 0 || L1D Acc = 133486, -- Miss = 78305, rate = 0.5866, -- PendHits = 2304, rate = 0.0173-- ResFail = 136847, rate = 1.0252
Error Per = 100 || Flushes = 783 || slicingInterval = 5000
--	Kid = 1 || L1D Acc = 1536, -- Miss = 303, rate = 0.1973, -- PendHits = 357, rate = 0.2324-- ResFail = 177, rate = 0.1152
Error Per = 100 || Flushes = 3 || slicingInterval = 5000
--	Kid = 2 || L1D Acc = 115723, -- Miss = 77041, rate = 0.6657, -- PendHits = 2633, rate = 0.0228-- ResFail = 164914, rate = 1.4251
Error Per = 100 || Flushes = 770 || slicingInterval = 5000
--	Kid = 3 || L1D Acc = 168, -- Miss = 103, rate = 0.6131, -- PendHits = 30, rate = 0.1786-- ResFail = 108, rate = 0.6429
Error Per = 100 || Flushes = 1 || slicingInterval = 5000
--	Kid = 4 || L1D Acc = 113198, -- Miss = 76368, rate = 0.6746, -- PendHits = 2535, rate = 0.0224-- ResFail = 174429, rate = 1.5409
Error Per = 100 || Flushes = 763 || slicingInterval = 5000
--	Kid = 5 || L1D Acc = 120, -- Miss = 97, rate = 0.8083, -- PendHits = 23, rate = 0.1917-- ResFail = 103, rate = 0.8583
Error Per = 100 || Flushes = 0 || slicingInterval = 5000
--------------------------------------------------------------
L1D access stats (for 6'th SM) 
--	Kid = 0 || L1D Acc = 133195, -- Miss = 77656, rate = 0.5830, -- PendHits = 2488, rate = 0.0187-- ResFail = 127970, rate = 0.9608
Error Per = 100 || Flushes = 776 || slicingInterval = 5000
--	Kid = 1 || L1D Acc = 1564, -- Miss = 320, rate = 0.2046, -- PendHits = 310, rate = 0.1982-- ResFail = 131, rate = 0.0838
Error Per = 100 || Flushes = 3 || slicingInterval = 5000
--	Kid = 2 || L1D Acc = 115435, -- Miss = 76806, rate = 0.6654, -- PendHits = 2588, rate = 0.0224-- ResFail = 160155, rate = 1.3874
Error Per = 100 || Flushes = 768 || slicingInterval = 5000
--	Kid = 3 || L1D Acc = 185, -- Miss = 102, rate = 0.5514, -- PendHits = 36, rate = 0.1946-- ResFail = 108, rate = 0.5838
Error Per = 100 || Flushes = 1 || slicingInterval = 5000
--	Kid = 4 || L1D Acc = 113159, -- Miss = 76746, rate = 0.6782, -- PendHits = 2814, rate = 0.0249-- ResFail = 170847, rate = 1.5098
Error Per = 100 || Flushes = 767 || slicingInterval = 5000
--	Kid = 5 || L1D Acc = 120, -- Miss = 97, rate = 0.8083, -- PendHits = 22, rate = 0.1833-- ResFail = 103, rate = 0.8583
Error Per = 100 || Flushes = 0 || slicingInterval = 5000
--------------------------------------------------------------
L1D access stats (for 7'th SM) 
--	Kid = 0 || L1D Acc = 129779, -- Miss = 74110, rate = 0.5710, -- PendHits = 2172, rate = 0.0167-- ResFail = 118726, rate = 0.9148
Error Per = 100 || Flushes = 741 || slicingInterval = 5000
--	Kid = 1 || L1D Acc = 1572, -- Miss = 319, rate = 0.2029, -- PendHits = 357, rate = 0.2271-- ResFail = 170, rate = 0.1081
Error Per = 100 || Flushes = 3 || slicingInterval = 5000
--	Kid = 2 || L1D Acc = 111497, -- Miss = 73153, rate = 0.6561, -- PendHits = 2362, rate = 0.0212-- ResFail = 150109, rate = 1.3463
Error Per = 100 || Flushes = 731 || slicingInterval = 5000
--	Kid = 3 || L1D Acc = 167, -- Miss = 102, rate = 0.6108, -- PendHits = 27, rate = 0.1617-- ResFail = 108, rate = 0.6467
Error Per = 100 || Flushes = 1 || slicingInterval = 5000
--	Kid = 4 || L1D Acc = 109464, -- Miss = 72940, rate = 0.6663, -- PendHits = 2429, rate = 0.0222-- ResFail = 159829, rate = 1.4601
Error Per = 100 || Flushes = 729 || slicingInterval = 5000
--	Kid = 5 || L1D Acc = 120, -- Miss = 97, rate = 0.8083, -- PendHits = 23, rate = 0.1917-- ResFail = 105, rate = 0.8750
Error Per = 100 || Flushes = 0 || slicingInterval = 5000
--------------------------------------------------------------
L1D access stats (for 8'th SM) 
--	Kid = 0 || L1D Acc = 138611, -- Miss = 80024, rate = 0.5773, -- PendHits = 2534, rate = 0.0183-- ResFail = 134922, rate = 0.9734
Error Per = 100 || Flushes = 800 || slicingInterval = 5000
--	Kid = 1 || L1D Acc = 1453, -- Miss = 327, rate = 0.2251, -- PendHits = 357, rate = 0.2457-- ResFail = 108, rate = 0.0743
Error Per = 100 || Flushes = 3 || slicingInterval = 5000
--	Kid = 2 || L1D Acc = 119672, -- Miss = 79832, rate = 0.6671, -- PendHits = 2667, rate = 0.0223-- ResFail = 169581, rate = 1.4170
Error Per = 100 || Flushes = 798 || slicingInterval = 5000
--	Kid = 3 || L1D Acc = 169, -- Miss = 103, rate = 0.6095, -- PendHits = 31, rate = 0.1834-- ResFail = 103, rate = 0.6095
Error Per = 100 || Flushes = 1 || slicingInterval = 5000
--	Kid = 4 || L1D Acc = 117632, -- Miss = 79563, rate = 0.6764, -- PendHits = 2639, rate = 0.0224-- ResFail = 179407, rate = 1.5252
Error Per = 100 || Flushes = 795 || slicingInterval = 5000
--	Kid = 5 || L1D Acc = 120, -- Miss = 97, rate = 0.8083, -- PendHits = 23, rate = 0.1917-- ResFail = 105, rate = 0.8750
Error Per = 100 || Flushes = 0 || slicingInterval = 5000
--------------------------------------------------------------
L1D access stats (for 9'th SM) 
--	Kid = 0 || L1D Acc = 124030, -- Miss = 71436, rate = 0.5760, -- PendHits = 2206, rate = 0.0178-- ResFail = 122341, rate = 0.9864
Error Per = 100 || Flushes = 714 || slicingInterval = 5000
--	Kid = 1 || L1D Acc = 1498, -- Miss = 338, rate = 0.2256, -- PendHits = 372, rate = 0.2483-- ResFail = 221, rate = 0.1475
Error Per = 100 || Flushes = 3 || slicingInterval = 5000
--	Kid = 2 || L1D Acc = 107197, -- Miss = 70674, rate = 0.6593, -- PendHits = 2365, rate = 0.0221-- ResFail = 141996, rate = 1.3246
Error Per = 100 || Flushes = 706 || slicingInterval = 5000
--	Kid = 3 || L1D Acc = 173, -- Miss = 107, rate = 0.6185, -- PendHits = 27, rate = 0.1561-- ResFail = 103, rate = 0.5954
Error Per = 100 || Flushes = 1 || slicingInterval = 5000
--	Kid = 4 || L1D Acc = 105076, -- Miss = 70304, rate = 0.6691, -- PendHits = 2331, rate = 0.0222-- ResFail = 157218, rate = 1.4962
Error Per = 100 || Flushes = 703 || slicingInterval = 5000
--	Kid = 5 || L1D Acc = 120, -- Miss = 97, rate = 0.8083, -- PendHits = 23, rate = 0.1917-- ResFail = 105, rate = 0.8750
Error Per = 100 || Flushes = 0 || slicingInterval = 5000
--------------------------------------------------------------
L1D access stats (for 10'th SM) 
--	Kid = 0 || L1D Acc = 138535, -- Miss = 77465, rate = 0.5592, -- PendHits = 2352, rate = 0.0170-- ResFail = 127478, rate = 0.9202
Error Per = 100 || Flushes = 774 || slicingInterval = 5000
--	Kid = 1 || L1D Acc = 1559, -- Miss = 344, rate = 0.2207, -- PendHits = 264, rate = 0.1693-- ResFail = 193, rate = 0.1238
Error Per = 100 || Flushes = 3 || slicingInterval = 5000
--	Kid = 2 || L1D Acc = 119624, -- Miss = 76569, rate = 0.6401, -- PendHits = 2549, rate = 0.0213-- ResFail = 149796, rate = 1.2522
Error Per = 100 || Flushes = 765 || slicingInterval = 5000
--	Kid = 3 || L1D Acc = 178, -- Miss = 101, rate = 0.5674, -- PendHits = 23, rate = 0.1292-- ResFail = 108, rate = 0.6067
Error Per = 100 || Flushes = 1 || slicingInterval = 5000
--	Kid = 4 || L1D Acc = 117267, -- Miss = 75856, rate = 0.6469, -- PendHits = 2771, rate = 0.0236-- ResFail = 162047, rate = 1.3819
Error Per = 100 || Flushes = 758 || slicingInterval = 5000
--	Kid = 5 || L1D Acc = 120, -- Miss = 97, rate = 0.8083, -- PendHits = 23, rate = 0.1917-- ResFail = 93, rate = 0.7750
Error Per = 100 || Flushes = 0 || slicingInterval = 5000
--------------------------------------------------------------
L1D access stats (for 11'th SM) 
--	Kid = 0 || L1D Acc = 140266, -- Miss = 81656, rate = 0.5822, -- PendHits = 2559, rate = 0.0182-- ResFail = 145920, rate = 1.0403
Error Per = 100 || Flushes = 816 || slicingInterval = 5000
--	Kid = 1 || L1D Acc = 1537, -- Miss = 334, rate = 0.2173, -- PendHits = 365, rate = 0.2375-- ResFail = 187, rate = 0.1217
Error Per = 100 || Flushes = 3 || slicingInterval = 5000
--	Kid = 2 || L1D Acc = 122085, -- Miss = 81239, rate = 0.6654, -- PendHits = 2597, rate = 0.0213-- ResFail = 170385, rate = 1.3956
Error Per = 100 || Flushes = 812 || slicingInterval = 5000
--	Kid = 3 || L1D Acc = 179, -- Miss = 107, rate = 0.5978, -- PendHits = 29, rate = 0.1620-- ResFail = 109, rate = 0.6089
Error Per = 100 || Flushes = 1 || slicingInterval = 5000
--	Kid = 4 || L1D Acc = 119684, -- Miss = 81150, rate = 0.6780, -- PendHits = 2694, rate = 0.0225-- ResFail = 184257, rate = 1.5395
Error Per = 100 || Flushes = 811 || slicingInterval = 5000
--	Kid = 5 || L1D Acc = 120, -- Miss = 97, rate = 0.8083, -- PendHits = 23, rate = 0.1917-- ResFail = 109, rate = 0.9083
Error Per = 100 || Flushes = 0 || slicingInterval = 5000
--------------------------------------------------------------
L1D access stats (for 12'th SM) 
--	Kid = 0 || L1D Acc = 132811, -- Miss = 75020, rate = 0.5649, -- PendHits = 2200, rate = 0.0166-- ResFail = 126811, rate = 0.9548
Error Per = 100 || Flushes = 750 || slicingInterval = 5000
--	Kid = 1 || L1D Acc = 1554, -- Miss = 348, rate = 0.2239, -- PendHits = 309, rate = 0.1988-- ResFail = 223, rate = 0.1435
Error Per = 100 || Flushes = 3 || slicingInterval = 5000
--	Kid = 2 || L1D Acc = 114661, -- Miss = 74264, rate = 0.6477, -- PendHits = 2407, rate = 0.0210-- ResFail = 151232, rate = 1.3189
Error Per = 100 || Flushes = 742 || slicingInterval = 5000
--	Kid = 3 || L1D Acc = 173, -- Miss = 101, rate = 0.5838, -- PendHits = 30, rate = 0.1734-- ResFail = 97, rate = 0.5607
Error Per = 100 || Flushes = 1 || slicingInterval = 5000
--	Kid = 4 || L1D Acc = 112264, -- Miss = 74341, rate = 0.6622, -- PendHits = 2605, rate = 0.0232-- ResFail = 161582, rate = 1.4393
Error Per = 100 || Flushes = 743 || slicingInterval = 5000
--	Kid = 5 || L1D Acc = 120, -- Miss = 97, rate = 0.8083, -- PendHits = 23, rate = 0.1917-- ResFail = 108, rate = 0.9000
Error Per = 100 || Flushes = 0 || slicingInterval = 5000
--------------------------------------------------------------
L1D access stats (for 13'th SM) 
--	Kid = 0 || L1D Acc = 129047, -- Miss = 75077, rate = 0.5818, -- PendHits = 2345, rate = 0.0182-- ResFail = 138514, rate = 1.0734
Error Per = 100 || Flushes = 750 || slicingInterval = 5000
--	Kid = 1 || L1D Acc = 1534, -- Miss = 355, rate = 0.2314, -- PendHits = 277, rate = 0.1806-- ResFail = 206, rate = 0.1343
Error Per = 100 || Flushes = 3 || slicingInterval = 5000
--	Kid = 2 || L1D Acc = 112454, -- Miss = 74684, rate = 0.6641, -- PendHits = 2417, rate = 0.0215-- ResFail = 155669, rate = 1.3843
Error Per = 100 || Flushes = 746 || slicingInterval = 5000
--	Kid = 3 || L1D Acc = 182, -- Miss = 103, rate = 0.5659, -- PendHits = 30, rate = 0.1648-- ResFail = 103, rate = 0.5659
Error Per = 100 || Flushes = 1 || slicingInterval = 5000
--	Kid = 4 || L1D Acc = 109674, -- Miss = 74732, rate = 0.6814, -- PendHits = 2512, rate = 0.0229-- ResFail = 167984, rate = 1.5317
Error Per = 100 || Flushes = 747 || slicingInterval = 5000
--	Kid = 5 || L1D Acc = 120, -- Miss = 97, rate = 0.8083, -- PendHits = 23, rate = 0.1917-- ResFail = 105, rate = 0.8750
Error Per = 100 || Flushes = 0 || slicingInterval = 5000
--------------------------------------------------------------
L1D access stats (for 14'th SM) 
--	Kid = 0 || L1D Acc = 140410, -- Miss = 81573, rate = 0.5810, -- PendHits = 2508, rate = 0.0179-- ResFail = 154400, rate = 1.0996
Error Per = 100 || Flushes = 815 || slicingInterval = 5000
--	Kid = 1 || L1D Acc = 1504, -- Miss = 344, rate = 0.2287, -- PendHits = 366, rate = 0.2434-- ResFail = 160, rate = 0.1064
Error Per = 100 || Flushes = 3 || slicingInterval = 5000
--	Kid = 2 || L1D Acc = 122665, -- Miss = 81519, rate = 0.6646, -- PendHits = 2679, rate = 0.0218-- ResFail = 178548, rate = 1.4556
Error Per = 100 || Flushes = 815 || slicingInterval = 5000
--	Kid = 3 || L1D Acc = 181, -- Miss = 105, rate = 0.5801, -- PendHits = 36, rate = 0.1989-- ResFail = 105, rate = 0.5801
Error Per = 100 || Flushes = 1 || slicingInterval = 5000
--	Kid = 4 || L1D Acc = 119728, -- Miss = 81249, rate = 0.6786, -- PendHits = 2828, rate = 0.0236-- ResFail = 190910, rate = 1.5945
Error Per = 100 || Flushes = 812 || slicingInterval = 5000
--	Kid = 5 || L1D Acc = 120, -- Miss = 97, rate = 0.8083, -- PendHits = 23, rate = 0.1917-- ResFail = 103, rate = 0.8583
Error Per = 100 || Flushes = 0 || slicingInterval = 5000
--------------------------------------------------------------
L1D access stats (for 15'th SM) 
--	Kid = 0 || L1D Acc = 132775, -- Miss = 75463, rate = 0.5684, -- PendHits = 2385, rate = 0.0180-- ResFail = 130625, rate = 0.9838
Error Per = 100 || Flushes = 754 || slicingInterval = 5000
--	Kid = 1 || L1D Acc = 1495, -- Miss = 360, rate = 0.2408, -- PendHits = 328, rate = 0.2194-- ResFail = 219, rate = 0.1465
Error Per = 100 || Flushes = 3 || slicingInterval = 5000
--	Kid = 2 || L1D Acc = 115172, -- Miss = 74903, rate = 0.6504, -- PendHits = 2473, rate = 0.0215-- ResFail = 150866, rate = 1.3099
Error Per = 100 || Flushes = 749 || slicingInterval = 5000
--	Kid = 3 || L1D Acc = 175, -- Miss = 103, rate = 0.5886, -- PendHits = 32, rate = 0.1829-- ResFail = 108, rate = 0.6171
Error Per = 100 || Flushes = 1 || slicingInterval = 5000
--	Kid = 4 || L1D Acc = 112524, -- Miss = 74613, rate = 0.6631, -- PendHits = 2499, rate = 0.0222-- ResFail = 160591, rate = 1.4272
Error Per = 100 || Flushes = 746 || slicingInterval = 5000
--	Kid = 5 || L1D Acc = 120, -- Miss = 97, rate = 0.8083, -- PendHits = 15, rate = 0.1250-- ResFail = 108, rate = 0.9000
Error Per = 100 || Flushes = 0 || slicingInterval = 5000
--------------------------------------------------------------
L1D access stats (for 16'th SM) 
--	Kid = 0 || L1D Acc = 138122, -- Miss = 77971, rate = 0.5645, -- PendHits = 2439, rate = 0.0177-- ResFail = 141950, rate = 1.0277
Error Per = 100 || Flushes = 779 || slicingInterval = 5000
--	Kid = 1 || L1D Acc = 1539, -- Miss = 350, rate = 0.2274, -- PendHits = 314, rate = 0.2040-- ResFail = 212, rate = 0.1378
Error Per = 100 || Flushes = 3 || slicingInterval = 5000
--	Kid = 2 || L1D Acc = 119693, -- Miss = 77626, rate = 0.6485, -- PendHits = 2625, rate = 0.0219-- ResFail = 160804, rate = 1.3435
Error Per = 100 || Flushes = 776 || slicingInterval = 5000
--	Kid = 3 || L1D Acc = 176, -- Miss = 100, rate = 0.5682, -- PendHits = 32, rate = 0.1818-- ResFail = 103, rate = 0.5852
Error Per = 100 || Flushes = 1 || slicingInterval = 5000
--	Kid = 4 || L1D Acc = 117075, -- Miss = 77503, rate = 0.6620, -- PendHits = 2642, rate = 0.0226-- ResFail = 169870, rate = 1.4510
Error Per = 100 || Flushes = 775 || slicingInterval = 5000
--	Kid = 5 || L1D Acc = 120, -- Miss = 97, rate = 0.8083, -- PendHits = 23, rate = 0.1917-- ResFail = 103, rate = 0.8583
Error Per = 100 || Flushes = 0 || slicingInterval = 5000
--------------------------------------------------------------
L1D access stats (for 17'th SM) 
--	Kid = 0 || L1D Acc = 133458, -- Miss = 75248, rate = 0.5638, -- PendHits = 2448, rate = 0.0183-- ResFail = 137346, rate = 1.0291
Error Per = 100 || Flushes = 752 || slicingInterval = 5000
--	Kid = 1 || L1D Acc = 1593, -- Miss = 349, rate = 0.2191, -- PendHits = 262, rate = 0.1645-- ResFail = 167, rate = 0.1048
Error Per = 100 || Flushes = 3 || slicingInterval = 5000
--	Kid = 2 || L1D Acc = 114723, -- Miss = 75468, rate = 0.6578, -- PendHits = 2392, rate = 0.0209-- ResFail = 156561, rate = 1.3647
Error Per = 100 || Flushes = 754 || slicingInterval = 5000
--	Kid = 3 || L1D Acc = 193, -- Miss = 108, rate = 0.5596, -- PendHits = 32, rate = 0.1658-- ResFail = 103, rate = 0.5337
Error Per = 100 || Flushes = 1 || slicingInterval = 5000
--	Kid = 4 || L1D Acc = 112320, -- Miss = 75251, rate = 0.6700, -- PendHits = 2558, rate = 0.0228-- ResFail = 169071, rate = 1.5053
Error Per = 100 || Flushes = 752 || slicingInterval = 5000
--	Kid = 5 || L1D Acc = 120, -- Miss = 97, rate = 0.8083, -- PendHits = 23, rate = 0.1917-- ResFail = 103, rate = 0.8583
Error Per = 100 || Flushes = 0 || slicingInterval = 5000
--------------------------------------------------------------
L1D access stats (for 18'th SM) 
--	Kid = 0 || L1D Acc = 143733, -- Miss = 83340, rate = 0.5798, -- PendHits = 2541, rate = 0.0177-- ResFail = 162414, rate = 1.1300
Error Per = 100 || Flushes = 833 || slicingInterval = 5000
--	Kid = 1 || L1D Acc = 1497, -- Miss = 350, rate = 0.2338, -- PendHits = 337, rate = 0.2251-- ResFail = 197, rate = 0.1316
Error Per = 100 || Flushes = 3 || slicingInterval = 5000
--	Kid = 2 || L1D Acc = 125317, -- Miss = 83533, rate = 0.6666, -- PendHits = 2724, rate = 0.0217-- ResFail = 177686, rate = 1.4179
Error Per = 100 || Flushes = 835 || slicingInterval = 5000
--	Kid = 3 || L1D Acc = 184, -- Miss = 104, rate = 0.5652, -- PendHits = 34, rate = 0.1848-- ResFail = 105, rate = 0.5707
Error Per = 100 || Flushes = 1 || slicingInterval = 5000
--	Kid = 4 || L1D Acc = 122512, -- Miss = 83769, rate = 0.6838, -- PendHits = 3072, rate = 0.0251-- ResFail = 194290, rate = 1.5859
Error Per = 100 || Flushes = 837 || slicingInterval = 5000
--	Kid = 5 || L1D Acc = 120, -- Miss = 97, rate = 0.8083, -- PendHits = 22, rate = 0.1833-- ResFail = 105, rate = 0.8750
Error Per = 100 || Flushes = 0 || slicingInterval = 5000
--------------------------------------------------------------
L1D access stats (for 19'th SM) 
--	Kid = 0 || L1D Acc = 139281, -- Miss = 79750, rate = 0.5726, -- PendHits = 2466, rate = 0.0177-- ResFail = 150992, rate = 1.0841
Error Per = 100 || Flushes = 797 || slicingInterval = 5000
--	Kid = 1 || L1D Acc = 1512, -- Miss = 354, rate = 0.2341, -- PendHits = 300, rate = 0.1984-- ResFail = 241, rate = 0.1594
Error Per = 100 || Flushes = 3 || slicingInterval = 5000
--	Kid = 2 || L1D Acc = 121167, -- Miss = 79718, rate = 0.6579, -- PendHits = 2570, rate = 0.0212-- ResFail = 168049, rate = 1.3869
Error Per = 100 || Flushes = 797 || slicingInterval = 5000
--	Kid = 3 || L1D Acc = 179, -- Miss = 104, rate = 0.5810, -- PendHits = 33, rate = 0.1844-- ResFail = 108, rate = 0.6034
Error Per = 100 || Flushes = 1 || slicingInterval = 5000
--	Kid = 4 || L1D Acc = 117994, -- Miss = 79248, rate = 0.6716, -- PendHits = 2510, rate = 0.0213-- ResFail = 181005, rate = 1.5340
Error Per = 100 || Flushes = 792 || slicingInterval = 5000
--	Kid = 5 || L1D Acc = 120, -- Miss = 97, rate = 0.8083, -- PendHits = 23, rate = 0.1917-- ResFail = 109, rate = 0.9083
Error Per = 100 || Flushes = 0 || slicingInterval = 5000
--------------------------------------------------------------
L1D access stats (for 20'th SM) 
--	Kid = 0 || L1D Acc = 133674, -- Miss = 76552, rate = 0.5727, -- PendHits = 2379, rate = 0.0178-- ResFail = 139101, rate = 1.0406
Error Per = 100 || Flushes = 765 || slicingInterval = 5000
--	Kid = 1 || L1D Acc = 1606, -- Miss = 386, rate = 0.2403, -- PendHits = 288, rate = 0.1793-- ResFail = 195, rate = 0.1214
Error Per = 100 || Flushes = 3 || slicingInterval = 5000
--	Kid = 2 || L1D Acc = 116614, -- Miss = 76254, rate = 0.6539, -- PendHits = 2592, rate = 0.0222-- ResFail = 156828, rate = 1.3448
Error Per = 100 || Flushes = 762 || slicingInterval = 5000
--	Kid = 3 || L1D Acc = 164, -- Miss = 105, rate = 0.6402, -- PendHits = 23, rate = 0.1402-- ResFail = 103, rate = 0.6280
Error Per = 100 || Flushes = 1 || slicingInterval = 5000
--	Kid = 4 || L1D Acc = 114048, -- Miss = 76757, rate = 0.6730, -- PendHits = 2565, rate = 0.0225-- ResFail = 174753, rate = 1.5323
Error Per = 100 || Flushes = 767 || slicingInterval = 5000
--	Kid = 5 || L1D Acc = 120, -- Miss = 97, rate = 0.8083, -- PendHits = 23, rate = 0.1917-- ResFail = 109, rate = 0.9083
Error Per = 100 || Flushes = 0 || slicingInterval = 5000
--------------------------------------------------------------
L1D access stats (for 21'th SM) 
--	Kid = 0 || L1D Acc = 128936, -- Miss = 74420, rate = 0.5772, -- PendHits = 2464, rate = 0.0191-- ResFail = 142342, rate = 1.1040
Error Per = 100 || Flushes = 744 || slicingInterval = 5000
--	Kid = 1 || L1D Acc = 1543, -- Miss = 357, rate = 0.2314, -- PendHits = 319, rate = 0.2067-- ResFail = 205, rate = 0.1329
Error Per = 100 || Flushes = 3 || slicingInterval = 5000
--	Kid = 2 || L1D Acc = 113192, -- Miss = 74681, rate = 0.6598, -- PendHits = 2678, rate = 0.0237-- ResFail = 156468, rate = 1.3823
Error Per = 100 || Flushes = 746 || slicingInterval = 5000
--	Kid = 3 || L1D Acc = 191, -- Miss = 106, rate = 0.5550, -- PendHits = 34, rate = 0.1780-- ResFail = 109, rate = 0.5707
Error Per = 100 || Flushes = 1 || slicingInterval = 5000
--	Kid = 4 || L1D Acc = 110486, -- Miss = 74618, rate = 0.6754, -- PendHits = 2735, rate = 0.0248-- ResFail = 170836, rate = 1.5462
Error Per = 100 || Flushes = 746 || slicingInterval = 5000
--	Kid = 5 || L1D Acc = 120, -- Miss = 97, rate = 0.8083, -- PendHits = 23, rate = 0.1917-- ResFail = 109, rate = 0.9083
Error Per = 100 || Flushes = 0 || slicingInterval = 5000
--------------------------------------------------------------
L1D access stats (for 22'th SM) 
--	Kid = 0 || L1D Acc = 135793, -- Miss = 77107, rate = 0.5678, -- PendHits = 2352, rate = 0.0173-- ResFail = 142375, rate = 1.0485
Error Per = 100 || Flushes = 771 || slicingInterval = 5000
--	Kid = 1 || L1D Acc = 1566, -- Miss = 359, rate = 0.2292, -- PendHits = 288, rate = 0.1839-- ResFail = 205, rate = 0.1309
Error Per = 100 || Flushes = 3 || slicingInterval = 5000
--	Kid = 2 || L1D Acc = 117750, -- Miss = 77457, rate = 0.6578, -- PendHits = 2532, rate = 0.0215-- ResFail = 153799, rate = 1.3061
Error Per = 100 || Flushes = 774 || slicingInterval = 5000
--	Kid = 3 || L1D Acc = 180, -- Miss = 105, rate = 0.5833, -- PendHits = 29, rate = 0.1611-- ResFail = 103, rate = 0.5722
Error Per = 100 || Flushes = 1 || slicingInterval = 5000
--	Kid = 4 || L1D Acc = 115261, -- Miss = 77300, rate = 0.6707, -- PendHits = 2685, rate = 0.0233-- ResFail = 170361, rate = 1.4780
Error Per = 100 || Flushes = 773 || slicingInterval = 5000
--	Kid = 5 || L1D Acc = 120, -- Miss = 97, rate = 0.8083, -- PendHits = 23, rate = 0.1917-- ResFail = 108, rate = 0.9000
Error Per = 100 || Flushes = 0 || slicingInterval = 5000
--------------------------------------------------------------
L1D access stats (for 23'th SM) 
--	Kid = 0 || L1D Acc = 125459, -- Miss = 71861, rate = 0.5728, -- PendHits = 2356, rate = 0.0188-- ResFail = 140300, rate = 1.1183
Error Per = 100 || Flushes = 718 || slicingInterval = 5000
--	Kid = 1 || L1D Acc = 1530, -- Miss = 364, rate = 0.2379, -- PendHits = 335, rate = 0.2190-- ResFail = 154, rate = 0.1007
Error Per = 100 || Flushes = 3 || slicingInterval = 5000
--	Kid = 2 || L1D Acc = 109860, -- Miss = 71739, rate = 0.6530, -- PendHits = 2433, rate = 0.0221-- ResFail = 154530, rate = 1.4066
Error Per = 100 || Flushes = 717 || slicingInterval = 5000
--	Kid = 3 || L1D Acc = 186, -- Miss = 105, rate = 0.5645, -- PendHits = 32, rate = 0.1720-- ResFail = 105, rate = 0.5645
Error Per = 100 || Flushes = 1 || slicingInterval = 5000
--	Kid = 4 || L1D Acc = 107266, -- Miss = 71947, rate = 0.6707, -- PendHits = 2745, rate = 0.0256-- ResFail = 165848, rate = 1.5461
Error Per = 100 || Flushes = 719 || slicingInterval = 5000
--	Kid = 5 || L1D Acc = 120, -- Miss = 97, rate = 0.8083, -- PendHits = 23, rate = 0.1917-- ResFail = 103, rate = 0.8583
Error Per = 100 || Flushes = 0 || slicingInterval = 5000
--------------------------------------------------------------
L1D access stats (for 24'th SM) 
--	Kid = 0 || L1D Acc = 131037, -- Miss = 73487, rate = 0.5608, -- PendHits = 2343, rate = 0.0179-- ResFail = 134045, rate = 1.0230
Error Per = 100 || Flushes = 734 || slicingInterval = 5000
--	Kid = 1 || L1D Acc = 1578, -- Miss = 374, rate = 0.2370, -- PendHits = 298, rate = 0.1888-- ResFail = 197, rate = 0.1248
Error Per = 100 || Flushes = 3 || slicingInterval = 5000
--	Kid = 2 || L1D Acc = 113431, -- Miss = 73612, rate = 0.6490, -- PendHits = 2585, rate = 0.0228-- ResFail = 153235, rate = 1.3509
Error Per = 100 || Flushes = 736 || slicingInterval = 5000
--	Kid = 3 || L1D Acc = 171, -- Miss = 103, rate = 0.6023, -- PendHits = 29, rate = 0.1696-- ResFail = 93, rate = 0.5439
Error Per = 100 || Flushes = 1 || slicingInterval = 5000
--	Kid = 4 || L1D Acc = 111309, -- Miss = 73282, rate = 0.6584, -- PendHits = 2499, rate = 0.0225-- ResFail = 160798, rate = 1.4446
Error Per = 100 || Flushes = 732 || slicingInterval = 5000
--	Kid = 5 || L1D Acc = 120, -- Miss = 97, rate = 0.8083, -- PendHits = 23, rate = 0.1917-- ResFail = 93, rate = 0.7750
Error Per = 100 || Flushes = 0 || slicingInterval = 5000
--------------------------------------------------------------
L1D access stats (for 25'th SM) 
--	Kid = 0 || L1D Acc = 135210, -- Miss = 76304, rate = 0.5643, -- PendHits = 2414, rate = 0.0179-- ResFail = 135988, rate = 1.0058
Error Per = 100 || Flushes = 763 || slicingInterval = 5000
--	Kid = 1 || L1D Acc = 1598, -- Miss = 374, rate = 0.2340, -- PendHits = 295, rate = 0.1846-- ResFail = 203, rate = 0.1270
Error Per = 100 || Flushes = 3 || slicingInterval = 5000
--	Kid = 2 || L1D Acc = 117463, -- Miss = 76523, rate = 0.6515, -- PendHits = 2546, rate = 0.0217-- ResFail = 147982, rate = 1.2598
Error Per = 100 || Flushes = 765 || slicingInterval = 5000
--	Kid = 3 || L1D Acc = 174, -- Miss = 106, rate = 0.6092, -- PendHits = 31, rate = 0.1782-- ResFail = 108, rate = 0.6207
Error Per = 100 || Flushes = 1 || slicingInterval = 5000
--	Kid = 4 || L1D Acc = 114804, -- Miss = 76745, rate = 0.6685, -- PendHits = 2604, rate = 0.0227-- ResFail = 166195, rate = 1.4476
Error Per = 100 || Flushes = 767 || slicingInterval = 5000
--	Kid = 5 || L1D Acc = 120, -- Miss = 97, rate = 0.8083, -- PendHits = 23, rate = 0.1917-- ResFail = 105, rate = 0.8750
Error Per = 100 || Flushes = 0 || slicingInterval = 5000
--------------------------------------------------------------
L1D access stats (for 26'th SM) 
--	Kid = 0 || L1D Acc = 140649, -- Miss = 78497, rate = 0.5581, -- PendHits = 2587, rate = 0.0184-- ResFail = 147493, rate = 1.0487
Error Per = 100 || Flushes = 784 || slicingInterval = 5000
--	Kid = 1 || L1D Acc = 1495, -- Miss = 357, rate = 0.2388, -- PendHits = 367, rate = 0.2455-- ResFail = 158, rate = 0.1057
Error Per = 100 || Flushes = 3 || slicingInterval = 5000
--	Kid = 2 || L1D Acc = 124687, -- Miss = 78447, rate = 0.6292, -- PendHits = 2611, rate = 0.0209-- ResFail = 159618, rate = 1.2801
Error Per = 100 || Flushes = 784 || slicingInterval = 5000
--	Kid = 3 || L1D Acc = 171, -- Miss = 104, rate = 0.6082, -- PendHits = 29, rate = 0.1696-- ResFail = 105, rate = 0.6140
Error Per = 100 || Flushes = 1 || slicingInterval = 5000
--	Kid = 4 || L1D Acc = 118764, -- Miss = 78602, rate = 0.6618, -- PendHits = 2715, rate = 0.0229-- ResFail = 173896, rate = 1.4642
Error Per = 100 || Flushes = 786 || slicingInterval = 5000
--	Kid = 5 || L1D Acc = 120, -- Miss = 97, rate = 0.8083, -- PendHits = 22, rate = 0.1833-- ResFail = 109, rate = 0.9083
Error Per = 100 || Flushes = 0 || slicingInterval = 5000
--------------------------------------------------------------
L1D access stats (for 27'th SM) 
--	Kid = 0 || L1D Acc = 143576, -- Miss = 78702, rate = 0.5482, -- PendHits = 2405, rate = 0.0168-- ResFail = 150062, rate = 1.0452
Error Per = 100 || Flushes = 787 || slicingInterval = 5000
--	Kid = 1 || L1D Acc = 1588, -- Miss = 364, rate = 0.2292, -- PendHits = 318, rate = 0.2003-- ResFail = 208, rate = 0.1310
Error Per = 100 || Flushes = 3 || slicingInterval = 5000
--	Kid = 2 || L1D Acc = 122616, -- Miss = 78876, rate = 0.6433, -- PendHits = 2437, rate = 0.0199-- ResFail = 158831, rate = 1.2954
Error Per = 100 || Flushes = 788 || slicingInterval = 5000
--	Kid = 3 || L1D Acc = 175, -- Miss = 104, rate = 0.5943, -- PendHits = 30, rate = 0.1714-- ResFail = 105, rate = 0.6000
Error Per = 100 || Flushes = 1 || slicingInterval = 5000
--	Kid = 4 || L1D Acc = 120070, -- Miss = 78760, rate = 0.6560, -- PendHits = 2636, rate = 0.0220-- ResFail = 170799, rate = 1.4225
Error Per = 100 || Flushes = 787 || slicingInterval = 5000
--	Kid = 5 || L1D Acc = 120, -- Miss = 97, rate = 0.8083, -- PendHits = 9, rate = 0.0750-- ResFail = 103, rate = 0.8583
Error Per = 100 || Flushes = 0 || slicingInterval = 5000
--------------------------------------------------------------
L1D access stats (for 28'th SM) 
--	Kid = 0 || L1D Acc = 142634, -- Miss = 77443, rate = 0.5429, -- PendHits = 2427, rate = 0.0170-- ResFail = 138889, rate = 0.9737
Error Per = 100 || Flushes = 774 || slicingInterval = 5000
--	Kid = 1 || L1D Acc = 1589, -- Miss = 375, rate = 0.2360, -- PendHits = 270, rate = 0.1699-- ResFail = 206, rate = 0.1296
Error Per = 100 || Flushes = 3 || slicingInterval = 5000
--	Kid = 2 || L1D Acc = 121935, -- Miss = 77761, rate = 0.6377, -- PendHits = 2523, rate = 0.0207-- ResFail = 158102, rate = 1.2966
Error Per = 100 || Flushes = 777 || slicingInterval = 5000
--	Kid = 3 || L1D Acc = 172, -- Miss = 102, rate = 0.5930, -- PendHits = 30, rate = 0.1744-- ResFail = 109, rate = 0.6337
Error Per = 100 || Flushes = 1 || slicingInterval = 5000
--	Kid = 4 || L1D Acc = 119243, -- Miss = 77714, rate = 0.6517, -- PendHits = 2522, rate = 0.0212-- ResFail = 160523, rate = 1.3462
Error Per = 100 || Flushes = 777 || slicingInterval = 5000
--	Kid = 5 || L1D Acc = 120, -- Miss = 97, rate = 0.8083, -- PendHits = 23, rate = 0.1917-- ResFail = 105, rate = 0.8750
Error Per = 100 || Flushes = 0 || slicingInterval = 5000
--------------------------------------------------------------
L1D access stats (for 29'th SM) 
--	Kid = 0 || L1D Acc = 108881, -- Miss = 60448, rate = 0.5552, -- PendHits = 1972, rate = 0.0181-- ResFail = 86641, rate = 0.7957
Error Per = 100 || Flushes = 604 || slicingInterval = 5000
--	Kid = 1 || L1D Acc = 1340, -- Miss = 323, rate = 0.2410, -- PendHits = 328, rate = 0.2448-- ResFail = 169, rate = 0.1261
Error Per = 100 || Flushes = 3 || slicingInterval = 5000
--	Kid = 2 || L1D Acc = 95984, -- Miss = 60315, rate = 0.6284, -- PendHits = 1924, rate = 0.0200-- ResFail = 92540, rate = 0.9641
Error Per = 100 || Flushes = 603 || slicingInterval = 5000
--	Kid = 3 || L1D Acc = 143, -- Miss = 84, rate = 0.5874, -- PendHits = 25, rate = 0.1748-- ResFail = 84, rate = 0.5874
Error Per = 100 || Flushes = 0 || slicingInterval = 5000
--	Kid = 4 || L1D Acc = 93701, -- Miss = 60678, rate = 0.6476, -- PendHits = 2244, rate = 0.0239-- ResFail = 115060, rate = 1.2279
Error Per = 100 || Flushes = 606 || slicingInterval = 5000
--	Kid = 5 || L1D Acc = 99, -- Miss = 80, rate = 0.8081, -- PendHits = 19, rate = 0.1919-- ResFail = 84, rate = 0.8485
Error Per = 100 || Flushes = 0 || slicingInterval = 5000
d846cbd643945699eb52f738a05d6191  /home/pars/Documents/expSetups/a13/cc_base_L1D_100__socFBBerkeley13
Extracting PTX file and ptxas options    1: cc_base_L1D_100__socFBBerkeley13.1.sm_75.ptx -arch=sm_75
Parallel calisiyor
self exe links to: /home/pars/Documents/expSetups/a13/cc_base_L1D_100__socFBBerkeley13
self exe links to: /home/pars/Documents/expSetups/a13/cc_base_L1D_100__socFBBerkeley13
11.0
GPGPU-Sim PTX: __cudaRegisterFatBinary, fat_cubin_handle = 1, filename=default
self exe links to: /home/pars/Documents/expSetups/a13/cc_base_L1D_100__socFBBerkeley13
Running md5sum using "md5sum /home/pars/Documents/expSetups/a13/cc_base_L1D_100__socFBBerkeley13 "
self exe links to: /home/pars/Documents/expSetups/a13/cc_base_L1D_100__socFBBerkeley13
Extracting specific PTX file named cc_base_L1D_100__socFBBerkeley13.1.sm_75.ptx 
GPGPU-Sim PTX: __cudaRegisterFunction _Z8shortcutiPi : hostFun 0x0x555860e2c04a, fat_cubin_handle = 1
GPGPU-Sim PTX: Parsing cc_base_L1D_100__socFBBerkeley13.1.sm_75.ptx
GPGPU-Sim PTX: Warning -- ignoring pragma 'nounroll'
GPGPU-Sim PTX: instruction assembly for function '_Z4hookiPKmPKiPiPb'...   done.
GPGPU-Sim PTX: instruction assembly for function '_Z8shortcutiPi'...   done.
GPGPU-Sim PTX: finished parsing EMBEDDED .ptx file cc_base_L1D_100__socFBBerkeley13.1.sm_75.ptx
GPGPU-Sim PTX: loading globals with explicit initializers... 
GPGPU-Sim PTX: finished loading globals (0 bytes total).
GPGPU-Sim PTX: loading constants with explicit initializers...  done.
GPGPU-Sim PTX: Loading PTXInfo from cc_base_L1D_100__socFBBerkeley13.1.sm_75.ptx
GPGPU-Sim PTX: Kernel '_Z8shortcutiPi' : regs=12, lmem=0, smem=0, cmem=368
GPGPU-Sim PTX: Kernel '_Z4hookiPKmPKiPiPb' : regs=18, lmem=0, smem=0, cmem=392
GPGPU-Sim PTX: __cudaRegisterFunction _Z4hookiPKmPKiPiPb : hostFun 0x0x555860e2becf, fat_cubin_handle = 1
Connected Component by Xuhao Chen
Reading (.mtx) input file ../../gardenia/datasets/socfb-Berkeley13.mtx
Removing redundent edges... 0 redundent edges are removed
|V| 22900 |E| 1704838
This graph is symmetrized
Launching CUDA CC solver (90 CTAs, 256 threads/CTA) ...
GPGPU-Sim PTX: Setting up arguments for 4 bytes starting at 0x7ffcf230e32c..
GPGPU-Sim PTX: Setting up arguments for 8 bytes starting at 0x7ffcf230e320..
GPGPU-Sim PTX: Setting up arguments for 8 bytes starting at 0x7ffcf230e318..
GPGPU-Sim PTX: Setting up arguments for 8 bytes starting at 0x7ffcf230e310..
GPGPU-Sim PTX: Setting up arguments for 8 bytes starting at 0x7ffcf230e308..

GPGPU-Sim PTX: cudaLaunch for 0x0x555860e2becf (mode=performance simulation) on stream 0
GPGPU-Sim PTX: finding reconvergence points for '_Z4hookiPKmPKiPiPb'...
GPGPU-Sim PTX: Finding dominators for '_Z4hookiPKmPKiPiPb'...
GPGPU-Sim PTX: Finding immediate dominators for '_Z4hookiPKmPKiPiPb'...
GPGPU-Sim PTX: Finding postdominators for '_Z4hookiPKmPKiPiPb'...
GPGPU-Sim PTX: Finding immediate postdominators for '_Z4hookiPKmPKiPiPb'...
GPGPU-Sim PTX: pre-decoding instructions for '_Z4hookiPKmPKiPiPb'...
GPGPU-Sim PTX: reconvergence points for _Z4hookiPKmPKiPiPb...
GPGPU-Sim PTX:  1 (potential) branch divergence @  PC=0x068 (cc_base_L1D_100__socFBBerkeley13.1.sm_75.ptx:42) @%p1 bra $L__BB0_23;
GPGPU-Sim PTX:    immediate post dominator      @  PC=0x408 (cc_base_L1D_100__socFBBerkeley13.1.sm_75.ptx:201) ret;
GPGPU-Sim PTX:  2 (potential) branch divergence @  PC=0x0b8 (cc_base_L1D_100__socFBBerkeley13.1.sm_75.ptx:53) @%p2 bra $L__BB0_23;
GPGPU-Sim PTX:    immediate post dominator      @  PC=0x408 (cc_base_L1D_100__socFBBerkeley13.1.sm_75.ptx:201) ret;
GPGPU-Sim PTX:  3 (potential) branch divergence @  PC=0x0e0 (cc_base_L1D_100__socFBBerkeley13.1.sm_75.ptx:59) @%p3 bra $L__BB0_8;
GPGPU-Sim PTX:    immediate post dominator      @  PC=0x1b0 (cc_base_L1D_100__socFBBerkeley13.1.sm_75.ptx:97) not.b32 %r33, %r3;
GPGPU-Sim PTX:  4 (potential) branch divergence @  PC=0x130 (cc_base_L1D_100__socFBBerkeley13.1.sm_75.ptx:75) @%p4 bra $L__BB0_7;
GPGPU-Sim PTX:    immediate post dominator      @  PC=0x188 (cc_base_L1D_100__socFBBerkeley13.1.sm_75.ptx:90) add.s32 %r57, %r57, 1;
GPGPU-Sim PTX:  5 (potential) branch divergence @  PC=0x170 (cc_base_L1D_100__socFBBerkeley13.1.sm_75.ptx:84) @%p5 bra $L__BB0_7;
GPGPU-Sim PTX:    immediate post dominator      @  PC=0x188 (cc_base_L1D_100__socFBBerkeley13.1.sm_75.ptx:90) add.s32 %r57, %r57, 1;
GPGPU-Sim PTX:  6 (potential) branch divergence @  PC=0x1a8 (cc_base_L1D_100__socFBBerkeley13.1.sm_75.ptx:94) @%p6 bra $L__BB0_4;
GPGPU-Sim PTX:    immediate post dominator      @  PC=0x1b0 (cc_base_L1D_100__socFBBerkeley13.1.sm_75.ptx:97) not.b32 %r33, %r3;
GPGPU-Sim PTX:  7 (potential) branch divergence @  PC=0x1c8 (cc_base_L1D_100__socFBBerkeley13.1.sm_75.ptx:100) @%p7 bra $L__BB0_23;
GPGPU-Sim PTX:    immediate post dominator      @  PC=0x408 (cc_base_L1D_100__socFBBerkeley13.1.sm_75.ptx:201) ret;
GPGPU-Sim PTX:  8 (potential) branch divergence @  PC=0x210 (cc_base_L1D_100__socFBBerkeley13.1.sm_75.ptx:114) @%p8 bra $L__BB0_13;
GPGPU-Sim PTX:    immediate post dominator      @  PC=0x268 (cc_base_L1D_100__socFBBerkeley13.1.sm_75.ptx:129) ld.global.u32 %r41, [%rd42+4];
GPGPU-Sim PTX:  9 (potential) branch divergence @  PC=0x250 (cc_base_L1D_100__socFBBerkeley13.1.sm_75.ptx:123) @%p9 bra $L__BB0_13;
GPGPU-Sim PTX:    immediate post dominator      @  PC=0x268 (cc_base_L1D_100__socFBBerkeley13.1.sm_75.ptx:129) ld.global.u32 %r41, [%rd42+4];
GPGPU-Sim PTX: 10 (potential) branch divergence @  PC=0x290 (cc_base_L1D_100__socFBBerkeley13.1.sm_75.ptx:136) @%p10 bra $L__BB0_16;
GPGPU-Sim PTX:    immediate post dominator      @  PC=0x2e8 (cc_base_L1D_100__socFBBerkeley13.1.sm_75.ptx:151) ld.global.u32 %r46, [%rd42+8];
GPGPU-Sim PTX: 11 (potential) branch divergence @  PC=0x2d0 (cc_base_L1D_100__socFBBerkeley13.1.sm_75.ptx:145) @%p11 bra $L__BB0_16;
GPGPU-Sim PTX:    immediate post dominator      @  PC=0x2e8 (cc_base_L1D_100__socFBBerkeley13.1.sm_75.ptx:151) ld.global.u32 %r46, [%rd42+8];
GPGPU-Sim PTX: 12 (potential) branch divergence @  PC=0x310 (cc_base_L1D_100__socFBBerkeley13.1.sm_75.ptx:158) @%p12 bra $L__BB0_19;
GPGPU-Sim PTX:    immediate post dominator      @  PC=0x368 (cc_base_L1D_100__socFBBerkeley13.1.sm_75.ptx:173) ld.global.u32 %r51, [%rd42+12];
GPGPU-Sim PTX: 13 (potential) branch divergence @  PC=0x350 (cc_base_L1D_100__socFBBerkeley13.1.sm_75.ptx:167) @%p13 bra $L__BB0_19;
GPGPU-Sim PTX:    immediate post dominator      @  PC=0x368 (cc_base_L1D_100__socFBBerkeley13.1.sm_75.ptx:173) ld.global.u32 %r51, [%rd42+12];
GPGPU-Sim PTX: 14 (potential) branch divergence @  PC=0x390 (cc_base_L1D_100__socFBBerkeley13.1.sm_75.ptx:180) @%p14 bra $L__BB0_22;
GPGPU-Sim PTX:    immediate post dominator      @  PC=0x3e8 (cc_base_L1D_100__socFBBerkeley13.1.sm_75.ptx:195) add.s32 %r57, %r57, 4;
GPGPU-Sim PTX: 15 (potential) branch divergence @  PC=0x3d0 (cc_base_L1D_100__socFBBerkeley13.1.sm_75.ptx:189) @%p15 bra $L__BB0_22;
GPGPU-Sim PTX:    immediate post dominator      @  PC=0x3e8 (cc_base_L1D_100__socFBBerkeley13.1.sm_75.ptx:195) add.s32 %r57, %r57, 4;
GPGPU-Sim PTX: 16 (potential) branch divergence @  PC=0x400 (cc_base_L1D_100__socFBBerkeley13.1.sm_75.ptx:198) @%p16 bra $L__BB0_10;
GPGPU-Sim PTX:    immediate post dominator      @  PC=0x408 (cc_base_L1D_100__socFBBerkeley13.1.sm_75.ptx:201) ret;
GPGPU-Sim PTX: ... end of reconvergence points for _Z4hookiPKmPKiPiPb
GPGPU-Sim PTX: ... done pre-decoding instructions for '_Z4hookiPKmPKiPiPb'.
GPGPU-Sim PTX: pushing kernel '_Z4hookiPKmPKiPiPb' to stream 0, gridDim= (90,1,1) blockDim = (256,1,1) 
GPGPU-Sim uArch: Shader 0 bind to kernel 1 '_Z4hookiPKmPKiPiPb'
GPGPU-Sim uArch: CTA/core = 4, limited by: threads
GPGPU-Sim: Reconfigure L1 cache to 64KB
GPGPU-Sim uArch: Shader 1 bind to kernel 1 '_Z4hookiPKmPKiPiPb'
GPGPU-Sim uArch: Shader 2 bind to kernel 1 '_Z4hookiPKmPKiPiPb'
GPGPU-Sim uArch: Shader 3 bind to kernel 1 '_Z4hookiPKmPKiPiPb'
GPGPU-Sim uArch: Shader 4 bind to kernel 1 '_Z4hookiPKmPKiPiPb'
GPGPU-Sim uArch: Shader 5 bind to kernel 1 '_Z4hookiPKmPKiPiPb'
GPGPU-Sim uArch: Shader 6 bind to kernel 1 '_Z4hookiPKmPKiPiPb'
GPGPU-Sim uArch: Shader 7 bind to kernel 1 '_Z4hookiPKmPKiPiPb'
GPGPU-Sim uArch: Shader 8 bind to kernel 1 '_Z4hookiPKmPKiPiPb'
GPGPU-Sim uArch: Shader 9 bind to kernel 1 '_Z4hookiPKmPKiPiPb'
GPGPU-Sim uArch: Shader 10 bind to kernel 1 '_Z4hookiPKmPKiPiPb'
GPGPU-Sim uArch: Shader 11 bind to kernel 1 '_Z4hookiPKmPKiPiPb'
GPGPU-Sim uArch: Shader 12 bind to kernel 1 '_Z4hookiPKmPKiPiPb'
GPGPU-Sim uArch: Shader 13 bind to kernel 1 '_Z4hookiPKmPKiPiPb'
GPGPU-Sim uArch: Shader 14 bind to kernel 1 '_Z4hookiPKmPKiPiPb'
GPGPU-Sim uArch: Shader 15 bind to kernel 1 '_Z4hookiPKmPKiPiPb'
GPGPU-Sim uArch: Shader 16 bind to kernel 1 '_Z4hookiPKmPKiPiPb'
GPGPU-Sim uArch: Shader 17 bind to kernel 1 '_Z4hookiPKmPKiPiPb'
GPGPU-Sim uArch: Shader 18 bind to kernel 1 '_Z4hookiPKmPKiPiPb'
GPGPU-Sim uArch: Shader 19 bind to kernel 1 '_Z4hookiPKmPKiPiPb'
GPGPU-Sim uArch: Shader 20 bind to kernel 1 '_Z4hookiPKmPKiPiPb'
GPGPU-Sim uArch: Shader 21 bind to kernel 1 '_Z4hookiPKmPKiPiPb'
GPGPU-Sim uArch: Shader 22 bind to kernel 1 '_Z4hookiPKmPKiPiPb'
GPGPU-Sim uArch: Shader 23 bind to kernel 1 '_Z4hookiPKmPKiPiPb'
GPGPU-Sim uArch: Shader 24 bind to kernel 1 '_Z4hookiPKmPKiPiPb'
GPGPU-Sim uArch: Shader 25 bind to kernel 1 '_Z4hookiPKmPKiPiPb'
GPGPU-Sim uArch: Shader 26 bind to kernel 1 '_Z4hookiPKmPKiPiPb'
GPGPU-Sim uArch: Shader 27 bind to kernel 1 '_Z4hookiPKmPKiPiPb'
GPGPU-Sim uArch: Shader 28 bind to kernel 1 '_Z4hookiPKmPKiPiPb'
GPGPU-Sim uArch: Shader 29 bind to kernel 1 '_Z4hookiPKmPKiPiPb'
Simulation cycle for kernel 0 is = 10000
Simulation cycle for kernel 0 is = 15000
Simulation cycle for kernel 0 is = 20000
Simulation cycle for kernel 0 is = 25000
Simulation cycle for kernel 0 is = 30000
Simulation cycle for kernel 0 is = 35000
Simulation cycle for kernel 0 is = 40000
Simulation cycle for kernel 0 is = 45000
Simulation cycle for kernel 0 is = 50000
Simulation cycle for kernel 0 is = 55000
Simulation cycle for kernel 0 is = 60000
Simulation cycle for kernel 0 is = 65000
Simulation cycle for kernel 0 is = 70000
Simulation cycle for kernel 0 is = 75000
Simulation cycle for kernel 0 is = 80000
Simulation cycle for kernel 0 is = 85000
Simulation cycle for kernel 0 is = 90000
Simulation cycle for kernel 0 is = 95000
Simulation cycle for kernel 0 is = 100000
Simulation cycle for kernel 0 is = 105000
Simulation cycle for kernel 0 is = 110000
Simulation cycle for kernel 0 is = 115000
Simulation cycle for kernel 0 is = 120000
Simulation cycle for kernel 0 is = 125000
Simulation cycle for kernel 0 is = 130000
Simulation cycle for kernel 0 is = 135000
Simulation cycle for kernel 0 is = 140000
Simulation cycle for kernel 0 is = 145000
Simulation cycle for kernel 0 is = 150000
Simulation cycle for kernel 0 is = 155000
Simulation cycle for kernel 0 is = 160000
Simulation cycle for kernel 0 is = 165000
Simulation cycle for kernel 0 is = 170000
Simulation cycle for kernel 0 is = 175000
Simulation cycle for kernel 0 is = 180000
Simulation cycle for kernel 0 is = 185000
Simulation cycle for kernel 0 is = 190000
Simulation cycle for kernel 0 is = 195000
Simulation cycle for kernel 0 is = 200000
Simulation cycle for kernel 0 is = 205000
Simulation cycle for kernel 0 is = 210000
Simulation cycle for kernel 0 is = 215000
Simulation cycle for kernel 0 is = 220000
Simulation cycle for kernel 0 is = 225000
Simulation cycle for kernel 0 is = 230000
Simulation cycle for kernel 0 is = 235000
Simulation cycle for kernel 0 is = 240000
Simulation cycle for kernel 0 is = 245000
Simulation cycle for kernel 0 is = 250000
Simulation cycle for kernel 0 is = 255000
Simulation cycle for kernel 0 is = 260000
Simulation cycle for kernel 0 is = 265000
Simulation cycle for kernel 0 is = 270000
Simulation cycle for kernel 0 is = 275000
Simulation cycle for kernel 0 is = 280000
Simulation cycle for kernel 0 is = 285000
Simulation cycle for kernel 0 is = 290000
Simulation cycle for kernel 0 is = 295000
Simulation cycle for kernel 0 is = 300000
Simulation cycle for kernel 0 is = 305000
Simulation cycle for kernel 0 is = 310000
Simulation cycle for kernel 0 is = 315000
Simulation cycle for kernel 0 is = 320000
Simulation cycle for kernel 0 is = 325000
Simulation cycle for kernel 0 is = 330000
Simulation cycle for kernel 0 is = 335000
Simulation cycle for kernel 0 is = 340000
Simulation cycle for kernel 0 is = 345000
Simulation cycle for kernel 0 is = 350000
Simulation cycle for kernel 0 is = 355000
Simulation cycle for kernel 0 is = 360000
Simulation cycle for kernel 0 is = 365000
Simulation cycle for kernel 0 is = 370000
Simulation cycle for kernel 0 is = 375000
Simulation cycle for kernel 0 is = 380000
Simulation cycle for kernel 0 is = 385000
Simulation cycle for kernel 0 is = 390000
Simulation cycle for kernel 0 is = 395000
Simulation cycle for kernel 0 is = 400000
Simulation cycle for kernel 0 is = 405000
Simulation cycle for kernel 0 is = 410000
Simulation cycle for kernel 0 is = 415000
Simulation cycle for kernel 0 is = 420000
Simulation cycle for kernel 0 is = 425000
Simulation cycle for kernel 0 is = 430000
Simulation cycle for kernel 0 is = 435000
Simulation cycle for kernel 0 is = 440000
Simulation cycle for kernel 0 is = 445000
Simulation cycle for kernel 0 is = 450000
Simulation cycle for kernel 0 is = 455000
Simulation cycle for kernel 0 is = 460000
Simulation cycle for kernel 0 is = 465000
Simulation cycle for kernel 0 is = 470000
Simulation cycle for kernel 0 is = 475000
Simulation cycle for kernel 0 is = 480000
Simulation cycle for kernel 0 is = 485000
Simulation cycle for kernel 0 is = 490000
Simulation cycle for kernel 0 is = 495000
Simulation cycle for kernel 0 is = 500000
Simulation cycle for kernel 0 is = 505000
Simulation cycle for kernel 0 is = 510000
Simulation cycle for kernel 0 is = 515000
Simulation cycle for kernel 0 is = 520000
Simulation cycle for kernel 0 is = 525000
Simulation cycle for kernel 0 is = 530000
Simulation cycle for kernel 0 is = 535000
Simulation cycle for kernel 0 is = 540000
Simulation cycle for kernel 0 is = 545000
Simulation cycle for kernel 0 is = 550000
Simulation cycle for kernel 0 is = 555000
Simulation cycle for kernel 0 is = 560000
Simulation cycle for kernel 0 is = 565000
Simulation cycle for kernel 0 is = 570000
Simulation cycle for kernel 0 is = 575000
Simulation cycle for kernel 0 is = 580000
Simulation cycle for kernel 0 is = 585000
Simulation cycle for kernel 0 is = 590000
Simulation cycle for kernel 0 is = 595000
Simulation cycle for kernel 0 is = 600000
Simulation cycle for kernel 0 is = 605000
Simulation cycle for kernel 0 is = 610000
Simulation cycle for kernel 0 is = 615000
Simulation cycle for kernel 0 is = 620000
Simulation cycle for kernel 0 is = 625000
[...]

------------------------------------------------------------------------

Row_Buffer_Locality = 0.136612
Row_Buffer_Locality_read = 0.136647
Row_Buffer_Locality_write = 0.040000
Bank_Level_Parallism = 3.539074
Bank_Level_Parallism_Col = 1.558791
Bank_Level_Parallism_Ready = 1.081943
write_to_read_ratio_blp_rw_average = 0.003052
GrpLevelPara = 1.440399 

BW Util details:
bwutil = 0.029903 
total_CMD = 9223147 
util_bw = 275804 
Wasted_Col = 763147 
Wasted_Row = 257280 
Idle = 7926916 

BW Util Bottlenecks: 
RCDc_limit = 1107821 
RCDWRc_limit = 196 
WTRc_limit = 2262 
RTWc_limit = 4820 
CCDLc_limit = 40408 
rwq = 0 
CCDLc_limit_alone = 39977 
WTRc_limit_alone = 2141 
RTWc_limit_alone = 4510 

Commands details: 
total_CMD = 9223147 
n_nop = 9046996 
Read = 68856 
Write = 0 
L2_Alloc = 0 
L2_WB = 95 
n_act = 59483 
n_pre = 59467 
n_ref = 0 
n_req = 68881 
total_req = 68951 

Dual Bus Interface Util: 
issued_total_row = 118950 
issued_total_col = 68951 
Row_Bus_Util =  0.012897 
CoL_Bus_Util = 0.007476 
Either_Row_CoL_Bus_Util = 0.019099 
Issued_on_Two_Bus_Simul_Util = 0.001274 
issued_two_Eff = 0.066704 
queue_avg = 0.465377 


dram_util_bins: 0 0 0 0 0 0 0 0 0 0
dram_eff_bins: 0 0 0 0 0 0 0 0 0 0
mrqq: max=64 avg=0.465377
Memory Partition 7: 
Cache L2_bank_014:
MSHR contents

Cache L2_bank_015:
MSHR contents

In Dram Latency Queue (total = 0): 
DRAM[7]: 16 bks, busW=2 BL=16 CL=24, tRRD=12 tCCD=4, tRCD=24 tRAS=55 tRP=24 tRC=78
n_cmd=9223147 n_nop=9065032 n_act=52180 n_pre=52164 n_ref_event=0 n_req=59870 n_rd=59848 n_rd_L2_A=0 n_write=0 n_wr_bk=82 bw_util=0.02599
n_activity=1484925 dram_eff=0.1614
bk0: 3825a 9014856i bk1: 3638a 9024687i bk2: 3967a 9002766i bk3: 3710a 9020850i bk4: 3851a 9008674i bk5: 3735a 9014287i bk6: 3791a 9009786i bk7: 3791a 9010468i bk8: 3828a 8996852i bk9: 3637a 9010768i bk10: 3827a 9002720i bk11: 3675a 9013302i bk12: 3704a 9008566i bk13: 3627a 9012358i bk14: 3624a 9017912i bk15: 3618a 9014013i 

------------------------------------------------------------------------

Row_Buffer_Locality = 0.128629
Row_Buffer_Locality_read = 0.128676
Row_Buffer_Locality_write = 0.000000
Bank_Level_Parallism = 2.717289
Bank_Level_Parallism_Col = 1.440089
Bank_Level_Parallism_Ready = 1.088896
write_to_read_ratio_blp_rw_average = 0.000958
GrpLevelPara = 1.342890 

BW Util details:
bwutil = 0.025991 
total_CMD = 9223147 
util_bw = 239720 
Wasted_Col = 750754 
Wasted_Row = 286929 
Idle = 7945744 

BW Util Bottlenecks: 
RCDc_limit = 1026938 
RCDWRc_limit = 204 
WTRc_limit = 1490 
RTWc_limit = 1014 
CCDLc_limit = 28644 
rwq = 0 
CCDLc_limit_alone = 28505 
WTRc_limit_alone = 1395 
RTWc_limit_alone = 970 

Commands details: 
total_CMD = 9223147 
n_nop = 9065032 
Read = 59848 
Write = 0 
L2_Alloc = 0 
L2_WB = 82 
n_act = 52180 
n_pre = 52164 
n_ref = 0 
n_req = 59870 
total_req = 59930 

Dual Bus Interface Util: 
issued_total_row = 104344 
issued_total_col = 59930 
Row_Bus_Util =  0.011313 
CoL_Bus_Util = 0.006498 
Either_Row_CoL_Bus_Util = 0.017143 
Issued_on_Two_Bus_Simul_Util = 0.000668 
issued_two_Eff = 0.038953 
queue_avg = 0.242264 


dram_util_bins: 0 0 0 0 0 0 0 0 0 0
dram_eff_bins: 0 0 0 0 0 0 0 0 0 0
mrqq: max=64 avg=0.242264
Memory Partition 8: 
Cache L2_bank_016:
MSHR contents

Cache L2_bank_017:
MSHR contents

In Dram Latency Queue (total = 0): 
DRAM[8]: 16 bks, busW=2 BL=16 CL=24, tRRD=12 tCCD=4, tRCD=24 tRAS=55 tRP=24 tRC=78
n_cmd=9223147 n_nop=9055433 n_act=55778 n_pre=55762 n_ref_event=0 n_req=64116 n_rd=64097 n_rd_L2_A=0 n_write=0 n_wr_bk=75 bw_util=0.02783
n_activity=1473213 dram_eff=0.1742
bk0: 4224a 8975490i bk1: 3990a 8989248i bk2: 4058a 8986346i bk3: 3908a 8995427i bk4: 3963a 8992698i bk5: 3919a 8995890i bk6: 4250a 8974181i bk7: 3945a 8992161i bk8: 4123a 8971080i bk9: 3987a 8985327i bk10: 4188a 8971301i bk11: 3993a 8985053i bk12: 4096a 8974501i bk13: 3844a 8987219i bk14: 3918a 8980959i bk15: 3691a 8997258i 

------------------------------------------------------------------------

Row_Buffer_Locality = 0.130248
Row_Buffer_Locality_read = 0.130287
Row_Buffer_Locality_write = 0.000000
Bank_Level_Parallism = 3.051220
Bank_Level_Parallism_Col = 1.494295
Bank_Level_Parallism_Ready = 1.089644
write_to_read_ratio_blp_rw_average = 0.001265
GrpLevelPara = 1.384456 

BW Util details:
bwutil = 0.027831 
total_CMD = 9223147 
util_bw = 256688 
Wasted_Col = 758692 
Wasted_Row = 264848 
Idle = 7942919 

BW Util Bottlenecks: 
RCDc_limit = 1071466 
RCDWRc_limit = 168 
WTRc_limit = 1364 
RTWc_limit = 1646 
CCDLc_limit = 33930 
rwq = 0 
CCDLc_limit_alone = 33777 
WTRc_limit_alone = 1304 
RTWc_limit_alone = 1553 

Commands details: 
total_CMD = 9223147 
n_nop = 9055433 
Read = 64097 
Write = 0 
L2_Alloc = 0 
L2_WB = 75 
n_act = 55778 
n_pre = 55762 
n_ref = 0 
n_req = 64116 
total_req = 64172 

Dual Bus Interface Util: 
issued_total_row = 111540 
issued_total_col = 64172 
Row_Bus_Util =  0.012093 
CoL_Bus_Util = 0.006958 
Either_Row_CoL_Bus_Util = 0.018184 
Issued_on_Two_Bus_Simul_Util = 0.000867 
issued_two_Eff = 0.047688 
queue_avg = 0.336668 


dram_util_bins: 0 0 0 0 0 0 0 0 0 0
dram_eff_bins: 0 0 0 0 0 0 0 0 0 0
mrqq: max=64 avg=0.336668
Memory Partition 9: 
Cache L2_bank_018:
MSHR contents

Cache L2_bank_019:
MSHR contents

In Dram Latency Queue (total = 0): 
DRAM[9]: 16 bks, busW=2 BL=16 CL=24, tRRD=12 tCCD=4, tRCD=24 tRAS=55 tRP=24 tRC=78
n_cmd=9223147 n_nop=9054809 n_act=56345 n_pre=56329 n_ref_event=0 n_req=65067 n_rd=65032 n_rd_L2_A=0 n_write=0 n_wr_bk=131 bw_util=0.02826
n_activity=1463671 dram_eff=0.1781
bk0: 4018a 8980046i bk1: 4290a 8956732i bk2: 3896a 8991669i bk3: 4131a 8976494i bk4: 3936a 8985258i bk5: 4355a 8960109i bk6: 3958a 8977059i bk7: 4243a 8955174i bk8: 3901a 8978567i bk9: 4330a 8947314i bk10: 3938a 8975581i bk11: 4284a 8952986i bk12: 3790a 8980672i bk13: 4061a 8964561i bk14: 3862a 8974970i bk15: 4039a 8964682i 

------------------------------------------------------------------------

Row_Buffer_Locality = 0.134200
Row_Buffer_Locality_read = 0.134195
Row_Buffer_Locality_write = 0.142857
Bank_Level_Parallism = 3.272414
Bank_Level_Parallism_Col = 1.529115
Bank_Level_Parallism_Ready = 1.085808
write_to_read_ratio_blp_rw_average = 0.004172
GrpLevelPara = 1.412489 

BW Util details:
bwutil = 0.028261 
total_CMD = 9223147 
util_bw = 260652 
Wasted_Col = 747642 
Wasted_Row = 258671 
Idle = 7956182 

BW Util Bottlenecks: 
RCDc_limit = 1066723 
RCDWRc_limit = 213 
WTRc_limit = 2441 
RTWc_limit = 6382 
CCDLc_limit = 36263 
rwq = 0 
CCDLc_limit_alone = 35716 
WTRc_limit_alone = 2325 
RTWc_limit_alone = 5951 

Commands details: 
total_CMD = 9223147 
n_nop = 9054809 
Read = 65032 
Write = 0 
L2_Alloc = 0 
L2_WB = 131 
n_act = 56345 
n_pre = 56329 
n_ref = 0 
n_req = 65067 
total_req = 65163 

Dual Bus Interface Util: 
issued_total_row = 112674 
issued_total_col = 65163 
Row_Bus_Util =  0.012216 
CoL_Bus_Util = 0.007065 
Either_Row_CoL_Bus_Util = 0.018252 
Issued_on_Two_Bus_Simul_Util = 0.001030 
issued_two_Eff = 0.056428 
queue_avg = 0.387701 


dram_util_bins: 0 0 0 0 0 0 0 0 0 0
dram_eff_bins: 0 0 0 0 0 0 0 0 0 0
mrqq: max=64 avg=0.387701
Memory Partition 10: 
Cache L2_bank_020:
MSHR contents

Cache L2_bank_021:
MSHR contents

In Dram Latency Queue (total = 0): 
DRAM[10]: 16 bks, busW=2 BL=16 CL=24, tRRD=12 tCCD=4, tRCD=24 tRAS=55 tRP=24 tRC=78
n_cmd=9223147 n_nop=9060225 n_act=53891 n_pre=53875 n_ref_event=0 n_req=61737 n_rd=61708 n_rd_L2_A=0 n_write=0 n_wr_bk=113 bw_util=0.02681
n_activity=1482767 dram_eff=0.1668
bk0: 3881a 9001521i bk1: 3859a 9004412i bk2: 3844a 9007257i bk3: 3830a 9009178i bk4: 3977a 8997932i bk5: 3883a 9005204i bk6: 3893a 8999494i bk7: 3916a 8996885i bk8: 3910a 8990623i bk9: 3826a 8993923i bk10: 4063a 8988631i bk11: 3853a 8994856i bk12: 3931a 8991274i bk13: 3674a 9005761i bk14: 3723a 9004829i bk15: 3645a 9008981i 

------------------------------------------------------------------------

Row_Buffer_Locality = 0.127282
Row_Buffer_Locality_read = 0.127325
Row_Buffer_Locality_write = 0.034483
Bank_Level_Parallism = 2.841075
Bank_Level_Parallism_Col = 1.455277
Bank_Level_Parallism_Ready = 1.078005
write_to_read_ratio_blp_rw_average = 0.000860
GrpLevelPara = 1.359891 

BW Util details:
bwutil = 0.026811 
total_CMD = 9223147 
util_bw = 247284 
Wasted_Col = 759774 
Wasted_Row = 279034 
Idle = 7937055 

BW Util Bottlenecks: 
RCDc_limit = 1051316 
RCDWRc_limit = 268 
WTRc_limit = 2102 
RTWc_limit = 910 
CCDLc_limit = 30092 
rwq = 0 
CCDLc_limit_alone = 29938 
WTRc_limit_alone = 1977 
RTWc_limit_alone = 881 

Commands details: 
total_CMD = 9223147 
n_nop = 9060225 
Read = 61708 
Write = 0 
L2_Alloc = 0 
L2_WB = 113 
n_act = 53891 
n_pre = 53875 
n_ref = 0 
n_req = 61737 
total_req = 61821 

Dual Bus Interface Util: 
issued_total_row = 107766 
issued_total_col = 61821 
Row_Bus_Util =  0.011684 
CoL_Bus_Util = 0.006703 
Either_Row_CoL_Bus_Util = 0.017664 
Issued_on_Two_Bus_Simul_Util = 0.000723 
issued_two_Eff = 0.040909 
queue_avg = 0.281886 


dram_util_bins: 0 0 0 0 0 0 0 0 0 0
dram_eff_bins: 0 0 0 0 0 0 0 0 0 0
mrqq: max=64 avg=0.281886
Memory Partition 11: 
Cache L2_bank_022:
MSHR contents

Cache L2_bank_023:
MSHR contents

In Dram Latency Queue (total = 0): 
DRAM[11]: 16 bks, busW=2 BL=16 CL=24, tRRD=12 tCCD=4, tRCD=24 tRAS=55 tRP=24 tRC=78
n_cmd=9223147 n_nop=9065702 n_act=51749 n_pre=51733 n_ref_event=0 n_req=59550 n_rd=59533 n_rd_L2_A=0 n_write=0 n_wr_bk=66 bw_util=0.02585
n_activity=1500274 dram_eff=0.1589
bk0: 3873a 9009556i bk1: 3708a 9016955i bk2: 3811a 9011021i bk3: 3625a 9020477i bk4: 3898a 9010223i bk5: 3589a 9024937i bk6: 4013a 8994148i bk7: 3565a 9020427i bk8: 3850a 9000385i bk9: 3663a 9010215i bk10: 3817a 9000559i bk11: 3633a 9015561i bk12: 3752a 9009163i bk13: 3477a 9025113i bk14: 3793a 9008475i bk15: 3466a 9028933i 

------------------------------------------------------------------------

Row_Buffer_Locality = 0.131150
Row_Buffer_Locality_read = 0.131171
Row_Buffer_Locality_write = 0.058824
Bank_Level_Parallism = 2.675526
Bank_Level_Parallism_Col = 1.429950
Bank_Level_Parallism_Ready = 1.095214
write_to_read_ratio_blp_rw_average = 0.000588
GrpLevelPara = 1.336075 

BW Util details:
bwutil = 0.025848 
total_CMD = 9223147 
util_bw = 238396 
Wasted_Col = 754540 
Wasted_Row = 295789 
Idle = 7934422 

BW Util Bottlenecks: 
RCDc_limit = 1022385 
RCDWRc_limit = 175 
WTRc_limit = 815 
RTWc_limit = 425 
CCDLc_limit = 27318 
rwq = 0 
CCDLc_limit_alone = 27267 
WTRc_limit_alone = 775 
RTWc_limit_alone = 414 

Commands details: 
total_CMD = 9223147 
n_nop = 9065702 
Read = 59533 
Write = 0 
L2_Alloc = 0 
L2_WB = 66 
n_act = 51749 
n_pre = 51733 
n_ref = 0 
n_req = 59550 
total_req = 59599 

Dual Bus Interface Util: 
issued_total_row = 103482 
issued_total_col = 59599 
Row_Bus_Util =  0.011220 
CoL_Bus_Util = 0.006462 
Either_Row_CoL_Bus_Util = 0.017071 
Issued_on_Two_Bus_Simul_Util = 0.000611 
issued_two_Eff = 0.035797 
queue_avg = 0.261809 


dram_util_bins: 0 0 0 0 0 0 0 0 0 0
dram_eff_bins: 0 0 0 0 0 0 0 0 0 0
mrqq: max=64 avg=0.261809

========= L2 cache stats =========
L2_cache_bank[0]: Access = 268941, Miss = 30328, Miss_rate = 0.113, Pending_hits = 43, Reservation_fails = 0
L2_cache_bank[1]: Access = 270877, Miss = 29535, Miss_rate = 0.109, Pending_hits = 0, Reservation_fails = 22
L2_cache_bank[2]: Access = 276833, Miss = 31495, Miss_rate = 0.114, Pending_hits = 6, Reservation_fails = 0
L2_cache_bank[3]: Access = 269643, Miss = 31789, Miss_rate = 0.118, Pending_hits = 7, Reservation_fails = 449
L2_cache_bank[4]: Access = 269288, Miss = 31060, Miss_rate = 0.115, Pending_hits = 9, Reservation_fails = 0
L2_cache_bank[5]: Access = 271954, Miss = 30681, Miss_rate = 0.113, Pending_hits = 1, Reservation_fails = 0
L2_cache_bank[6]: Access = 272700, Miss = 30324, Miss_rate = 0.111, Pending_hits = 3, Reservation_fails = 25
L2_cache_bank[7]: Access = 276051, Miss = 30897, Miss_rate = 0.112, Pending_hits = 6, Reservation_fails = 66
L2_cache_bank[8]: Access = 274257, Miss = 32877, Miss_rate = 0.120, Pending_hits = 63, Reservation_fails = 0
L2_cache_bank[9]: Access = 277125, Miss = 31602, Miss_rate = 0.114, Pending_hits = 4, Reservation_fails = 0
L2_cache_bank[10]: Access = 271720, Miss = 29987, Miss_rate = 0.110, Pending_hits = 0, Reservation_fails = 0
L2_cache_bank[11]: Access = 267832, Miss = 29514, Miss_rate = 0.110, Pending_hits = 2, Reservation_fails = 19
L2_cache_bank[12]: Access = 267016, Miss = 34796, Miss_rate = 0.130, Pending_hits = 7, Reservation_fails = 0
L2_cache_bank[13]: Access = 273842, Miss = 34070, Miss_rate = 0.124, Pending_hits = 7, Reservation_fails = 0
L2_cache_bank[14]: Access = 274257, Miss = 30422, Miss_rate = 0.111, Pending_hits = 5, Reservation_fails = 0
L2_cache_bank[15]: Access = 267827, Miss = 29436, Miss_rate = 0.110, Pending_hits = 1, Reservation_fails = 0
L2_cache_bank[16]: Access = 271458, Miss = 32825, Miss_rate = 0.121, Pending_hits = 61, Reservation_fails = 0
L2_cache_bank[17]: Access = 274658, Miss = 31277, Miss_rate = 0.114, Pending_hits = 4, Reservation_fails = 0
L2_cache_bank[18]: Access = 270593, Miss = 31302, Miss_rate = 0.116, Pending_hits = 7, Reservation_fails = 0
L2_cache_bank[19]: Access = 272172, Miss = 33738, Miss_rate = 0.124, Pending_hits = 8, Reservation_fails = 0
L2_cache_bank[20]: Access = 272678, Miss = 31222, Miss_rate = 0.115, Pending_hits = 2, Reservation_fails = 0
L2_cache_bank[21]: Access = 269196, Miss = 30488, Miss_rate = 0.113, Pending_hits = 9, Reservation_fails = 0
L2_cache_bank[22]: Access = 270736, Miss = 30809, Miss_rate = 0.114, Pending_hits = 0, Reservation_fails = 0
L2_cache_bank[23]: Access = 267350, Miss = 28726, Miss_rate = 0.107, Pending_hits = 0, Reservation_fails = 0
L2_total_cache_accesses = 6519004
L2_total_cache_misses = 749200
L2_total_cache_miss_rate = 0.1149
L2_total_cache_pending_hits = 255
L2_total_cache_reservation_fails = 581
L2_total_cache_breakdown:
	L2_cache_stats_breakdown[GLOBAL_ACC_R][HIT] = 5747280
	L2_cache_stats_breakdown[GLOBAL_ACC_R][HIT_RESERVED] = 255
	L2_cache_stats_breakdown[GLOBAL_ACC_R][MISS] = 270098
	L2_cache_stats_breakdown[GLOBAL_ACC_R][RESERVATION_FAIL] = 581
	L2_cache_stats_breakdown[GLOBAL_ACC_R][SECTOR_MISS] = 479043
	L2_cache_stats_breakdown[GLOBAL_ACC_R][MSHR_HIT] = 255
	L2_cache_stats_breakdown[LOCAL_ACC_R][HIT] = 0
	L2_cache_stats_breakdown[LOCAL_ACC_R][HIT_RESERVED] = 0
	L2_cache_stats_breakdown[LOCAL_ACC_R][MISS] = 0
	L2_cache_stats_breakdown[LOCAL_ACC_R][RESERVATION_FAIL] = 0
	L2_cache_stats_breakdown[LOCAL_ACC_R][SECTOR_MISS] = 0
	L2_cache_stats_breakdown[LOCAL_ACC_R][MSHR_HIT] = 0
	L2_cache_stats_breakdown[CONST_ACC_R][HIT] = 0
	L2_cache_stats_breakdown[CONST_ACC_R][HIT_RESERVED] = 0
	L2_cache_stats_breakdown[CONST_ACC_R][MISS] = 0
	L2_cache_stats_breakdown[CONST_ACC_R][RESERVATION_FAIL] = 0
	L2_cache_stats_breakdown[CONST_ACC_R][SECTOR_MISS] = 0
	L2_cache_stats_breakdown[CONST_ACC_R][MSHR_HIT] = 0
	L2_cache_stats_breakdown[TEXTURE_ACC_R][HIT] = 0
	L2_cache_stats_breakdown[TEXTURE_ACC_R][HIT_RESERVED] = 0
	L2_cache_stats_breakdown[TEXTURE_ACC_R][MISS] = 0
	L2_cache_stats_breakdown[TEXTURE_ACC_R][RESERVATION_FAIL] = 0
	L2_cache_stats_breakdown[TEXTURE_ACC_R][SECTOR_MISS] = 0
	L2_cache_stats_breakdown[TEXTURE_ACC_R][MSHR_HIT] = 0
	L2_cache_stats_breakdown[GLOBAL_ACC_W][HIT] = 22269
	L2_cache_stats_breakdown[GLOBAL_ACC_W][HIT_RESERVED] = 0
	L2_cache_stats_breakdown[GLOBAL_ACC_W][MISS] = 19
	L2_cache_stats_breakdown[GLOBAL_ACC_W][RESERVATION_FAIL] = 0
	L2_cache_stats_breakdown[GLOBAL_ACC_W][SECTOR_MISS] = 40
	L2_cache_stats_breakdown[GLOBAL_ACC_W][MSHR_HIT] = 0
	L2_cache_stats_breakdown[LOCAL_ACC_W][HIT] = 0
	L2_cache_stats_breakdown[LOCAL_ACC_W][HIT_RESERVED] = 0
	L2_cache_stats_breakdown[LOCAL_ACC_W][MISS] = 0
	L2_cache_stats_breakdown[LOCAL_ACC_W][RESERVATION_FAIL] = 0
	L2_cache_stats_breakdown[LOCAL_ACC_W][SECTOR_MISS] = 0
	L2_cache_stats_breakdown[LOCAL_ACC_W][MSHR_HIT] = 0
	L2_cache_stats_breakdown[L1_WRBK_ACC][HIT] = 0
	L2_cache_stats_breakdown[L1_WRBK_ACC][HIT_RESERVED] = 0
	L2_cache_stats_breakdown[L1_WRBK_ACC][MISS] = 0
	L2_cache_stats_breakdown[L1_WRBK_ACC][RESERVATION_FAIL] = 0
	L2_cache_stats_breakdown[L1_WRBK_ACC][SECTOR_MISS] = 0
	L2_cache_stats_breakdown[L1_WRBK_ACC][MSHR_HIT] = 0
	L2_cache_stats_breakdown[L2_WRBK_ACC][HIT] = 0
	L2_cache_stats_breakdown[L2_WRBK_ACC][HIT_RESERVED] = 0
	L2_cache_stats_breakdown[L2_WRBK_ACC][MISS] = 0
	L2_cache_stats_breakdown[L2_WRBK_ACC][RESERVATION_FAIL] = 0
	L2_cache_stats_breakdown[L2_WRBK_ACC][SECTOR_MISS] = 0
	L2_cache_stats_breakdown[L2_WRBK_ACC][MSHR_HIT] = 0
	L2_cache_stats_breakdown[INST_ACC_R][HIT] = 0
	L2_cache_stats_breakdown[INST_ACC_R][HIT_RESERVED] = 0
	L2_cache_stats_breakdown[INST_ACC_R][MISS] = 0
	L2_cache_stats_breakdown[INST_ACC_R][RESERVATION_FAIL] = 0
	L2_cache_stats_breakdown[INST_ACC_R][SECTOR_MISS] = 0
	L2_cache_stats_breakdown[INST_ACC_R][MSHR_HIT] = 0
	L2_cache_stats_breakdown[L1_WR_ALLOC_R][HIT] = 0
	L2_cache_stats_breakdown[L1_WR_ALLOC_R][HIT_RESERVED] = 0
	L2_cache_stats_breakdown[L1_WR_ALLOC_R][MISS] = 0
	L2_cache_stats_breakdown[L1_WR_ALLOC_R][RESERVATION_FAIL] = 0
	L2_cache_stats_breakdown[L1_WR_ALLOC_R][SECTOR_MISS] = 0
	L2_cache_stats_breakdown[L1_WR_ALLOC_R][MSHR_HIT] = 0
	L2_cache_stats_breakdown[L2_WR_ALLOC_R][HIT] = 0
	L2_cache_stats_breakdown[L2_WR_ALLOC_R][HIT_RESERVED] = 0
	L2_cache_stats_breakdown[L2_WR_ALLOC_R][MISS] = 0
	L2_cache_stats_breakdown[L2_WR_ALLOC_R][RESERVATION_FAIL] = 0
	L2_cache_stats_breakdown[L2_WR_ALLOC_R][SECTOR_MISS] = 0
	L2_cache_stats_breakdown[L2_WR_ALLOC_R][MSHR_HIT] = 0
	L2_cache_stats_breakdown[GLOBAL_ACC_R][TOTAL_ACCESS] = 6496676
	L2_cache_stats_breakdown[GLOBAL_ACC_W][TOTAL_ACCESS] = 22328
L2_total_cache_reservation_fail_breakdown:
	L2_cache_stats_fail_breakdown[GLOBAL_ACC_R][MSHR_ENRTY_FAIL] = 581
L2_cache_data_port_util = 0.067
L2_cache_fill_port_util = 0.009

icnt_total_pkts_mem_to_simt=6519004
icnt_total_pkts_simt_to_mem=6519004
LD_mem_lat_dist  0 0 0 0 0 0 0 0 0 0 0 0 0 0 0 0 0 0 0 0 0 0 0 0 0 0 0
ST_mem_lat_dist  0 0 0 0 0 0 0 0 0 0 0 0 0 0 0 0 0 0 0 0 0 0 0 0 0 0 0
----------------------------Interconnect-DETAILS--------------------------------
Req_Network_injected_packets_num = 6519004
Req_Network_cycles = 3596519
Req_Network_injected_packets_per_cycle =       1.8126 
Req_Network_conflicts_per_cycle =       1.3587
Req_Network_conflicts_per_cycle_util =       8.0807
Req_Bank_Level_Parallism =      10.7805
Req_Network_in_buffer_full_per_cycle =       0.0000
Req_Network_in_buffer_avg_util =       9.4200
Req_Network_out_buffer_full_per_cycle =       0.0000
Req_Network_out_buffer_avg_util =       0.1202

Reply_Network_injected_packets_num = 6519004
Reply_Network_cycles = 3596519
Reply_Network_injected_packets_per_cycle =        1.8126
Reply_Network_conflicts_per_cycle =        0.7948
Reply_Network_conflicts_per_cycle_util =       4.7317
Reply_Bank_Level_Parallism =      10.7903
Reply_Network_in_buffer_full_per_cycle =       0.0000
Reply_Network_in_buffer_avg_util =       0.2050
Reply_Network_out_buffer_full_per_cycle =       0.0000
Reply_Network_out_buffer_avg_util =       0.0604
----------------------------END-of-Interconnect-DETAILS-------------------------


gpgpu_simulation_time = 0 days, 2 hrs, 44 min, 37 sec (9877 sec)
gpgpu_simulation_rate = 5876 (inst/sec)
gpgpu_simulation_rate = 364 (cycle/sec)
gpgpu_silicon_slowdown = 3750000x
GPGPU-Sim: synchronize waiting for inactive GPU simulation
GPGPU-Sim API: Stream Manager State
GPGPU-Sim: detected inactive GPU simulation thread
	iterations = 3.
	runtime [cuda_base] = 9874427.944000 ms.
Verifying...
Total element = 1704838, || elements whose err <= %0.1 = 0 || elements whose 0.1 < err  <= %1 = 0 || elements whose %1 < err <= %5 = 0 || elements whose %5 < err <= %10 = 0 || elements whose %10 < err = 22899 || total err Element = 22899
	runtime [serial] = 9.567000 ms.
Correct
GPGPU-Sim: *** exit detected ***
