

        *** GPGPU-Sim Simulator Version 4.2.0  [build gpgpu-sim_git-commit-5e9d31b8132651796656877ecb58fde27177ba7a_modified_315.0] ***


GPGPU-Sim PTX: simulation mode 0 (can change with PTX_SIM_MODE_FUNC environment variable:
               1=functional simulation only, 0=detailed performance simulator)
GPGPU-Sim PTX: overriding embedded ptx with ptx file (PTX_SIM_USE_PTX_FILE is set)
GPGPU-Sim: Configuration options:

-save_embedded_ptx                      0 # saves ptx files embedded in binary as <n>.ptx
-keep                                   0 # keep intermediate files created by GPGPU-Sim when interfacing with external programs
-gpgpu_ptx_save_converted_ptxplus                    0 # Saved converted ptxplus to a file
-gpgpu_occupancy_sm_number                   75 # The SM number to pass to ptxas when getting register usage for computing GPU occupancy. This parameter is required in the config.
-ptx_opcode_latency_int           4,4,4,4,21 # Opcode latencies for integers <ADD,MAX,MUL,MAD,DIV,SHFL>Default 1,1,19,25,145,32
-ptx_opcode_latency_fp           4,4,4,4,39 # Opcode latencies for single precision floating points <ADD,MAX,MUL,MAD,DIV>Default 1,1,1,1,30
-ptx_opcode_latency_dp      64,64,64,64,330 # Opcode latencies for double precision floating points <ADD,MAX,MUL,MAD,DIV>Default 8,8,8,8,335
-ptx_opcode_latency_sfu                   21 # Opcode latencies for SFU instructionsDefault 8
-ptx_opcode_latency_tesnor                   64 # Opcode latencies for Tensor instructionsDefault 64
-ptx_opcode_initiation_int            2,2,2,2,2 # Opcode initiation intervals for integers <ADD,MAX,MUL,MAD,DIV,SHFL>Default 1,1,4,4,32,4
-ptx_opcode_initiation_fp            2,2,2,2,4 # Opcode initiation intervals for single precision floating points <ADD,MAX,MUL,MAD,DIV>Default 1,1,1,1,5
-ptx_opcode_initiation_dp      64,64,64,64,130 # Opcode initiation intervals for double precision floating points <ADD,MAX,MUL,MAD,DIV>Default 8,8,8,8,130
-ptx_opcode_initiation_sfu                    8 # Opcode initiation intervals for sfu instructionsDefault 8
-ptx_opcode_initiation_tensor                   64 # Opcode initiation intervals for tensor instructionsDefault 64
-cdp_latency         7200,8000,100,12000,1600 # CDP API latency <cudaStreamCreateWithFlags, cudaGetParameterBufferV2_init_perWarp, cudaGetParameterBufferV2_perKernel, cudaLaunchDeviceV2_init_perWarp, cudaLaunchDevicV2_perKernel>Default 7200,8000,100,12000,1600
-network_mode                           2 # Interconnection network mode
-inter_config_file                   mesh # Interconnection network config file
-icnt_in_buffer_limit                  512 # in_buffer_limit
-icnt_out_buffer_limit                  512 # out_buffer_limit
-icnt_subnets                           2 # subnets
-icnt_arbiter_algo                      1 # arbiter_algo
-icnt_verbose                           0 # inct_verbose
-icnt_grant_cycles                      1 # grant_cycles
-gpgpu_ptx_use_cuobjdump                    1 # Use cuobjdump to extract ptx and sass from binaries
-gpgpu_experimental_lib_support                    0 # Try to extract code from cuda libraries [Broken because of unknown cudaGetExportTable]
-checkpoint_option                      0 #  checkpointing flag (0 = no checkpoint)
-checkpoint_kernel                      1 #  checkpointing during execution of which kernel (1- 1st kernel)
-checkpoint_CTA                         0 #  checkpointing after # of CTA (< less than total CTA)
-resume_option                          0 #  resume flag (0 = no resume)
-resume_kernel                          0 #  Resume from which kernel (1= 1st kernel)
-resume_CTA                             0 #  resume from which CTA 
-checkpoint_CTA_t                       0 #  resume from which CTA 
-checkpoint_insn_Y                      0 #  resume from which CTA 
-gpgpu_ptx_convert_to_ptxplus                    0 # Convert SASS (native ISA) to ptxplus and run ptxplus
-gpgpu_ptx_force_max_capability                   75 # Force maximum compute capability
-gpgpu_ptx_inst_debug_to_file                    0 # Dump executed instructions' debug information to file
-gpgpu_ptx_inst_debug_file       inst_debug.txt # Executed instructions' debug output file
-gpgpu_ptx_inst_debug_thread_uid                    1 # Thread UID for executed instructions' debug output
-gpgpu_simd_model                       1 # 1 = post-dominator
-gpgpu_shader_core_pipeline              1024:32 # shader core pipeline config, i.e., {<nthread>:<warpsize>}
-gpgpu_tex_cache:l1  N:4:128:256,L:R:m:N:L,T:512:8,128:2 # per-shader L1 texture cache  (READ-ONLY) config  {<nsets>:<bsize>:<assoc>,<rep>:<wr>:<alloc>:<wr_alloc>,<mshr>:<N>:<merge>,<mq>:<rf>}
-gpgpu_const_cache:l1 N:128:64:8,L:R:f:N:L,S:2:64,4 # per-shader L1 constant memory cache  (READ-ONLY) config  {<nsets>:<bsize>:<assoc>,<rep>:<wr>:<alloc>:<wr_alloc>,<mshr>:<N>:<merge>,<mq>} 
-gpgpu_cache:il1     N:64:128:16,L:R:f:N:L,S:2:48,4 # shader L1 instruction cache config  {<nsets>:<bsize>:<assoc>,<rep>:<wr>:<alloc>:<wr_alloc>,<mshr>:<N>:<merge>,<mq>} 
-gpgpu_cache:dl1     S:4:128:64,L:T:m:L:L,A:256:32,16:0,32 # per-shader L1 data cache config  {<nsets>:<bsize>:<assoc>,<rep>:<wr>:<alloc>:<wr_alloc>,<mshr>:<N>:<merge>,<mq> | none}
-gpgpu_l1_cache_write_ratio                   25 # L1D write ratio
-gpgpu_l1_banks                         4 # The number of L1 cache banks
-gpgpu_l1_banks_byte_interleaving                   32 # l1 banks byte interleaving granularity
-gpgpu_l1_banks_hashing_function                    0 # l1 banks hashing function
-gpgpu_l1_latency                      32 # L1 Hit Latency
-gpgpu_smem_latency                    30 # smem Latency
-gpgpu_cache:dl1PrefL1                 none # per-shader L1 data cache config  {<nsets>:<bsize>:<assoc>,<rep>:<wr>:<alloc>:<wr_alloc>,<mshr>:<N>:<merge>,<mq> | none}
-gpgpu_cache:dl1PrefShared                 none # per-shader L1 data cache config  {<nsets>:<bsize>:<assoc>,<rep>:<wr>:<alloc>:<wr_alloc>,<mshr>:<N>:<merge>,<mq> | none}
-gpgpu_gmem_skip_L1D                    0 # global memory access skip L1D cache (implements -Xptxas -dlcm=cg, default=no skip)
-gpgpu_perfect_mem                      0 # enable perfect memory mode (no cache miss)
-n_regfile_gating_group                    4 # group of lanes that should be read/written together)
-gpgpu_clock_gated_reg_file                    0 # enable clock gated reg file for power calculations
-gpgpu_clock_gated_lanes                    0 # enable clock gated lanes for power calculations
-gpgpu_shader_registers                65536 # Number of registers per shader core. Limits number of concurrent CTAs. (default 8192)
-gpgpu_registers_per_block                65536 # Maximum number of registers per CTA. (default 8192)
-gpgpu_ignore_resources_limitation                    0 # gpgpu_ignore_resources_limitation (default 0)
-gpgpu_shader_cta                      16 # Maximum number of concurrent CTAs in shader (default 32)
-gpgpu_num_cta_barriers                   16 # Maximum number of named barriers per CTA (default 16)
-gpgpu_n_clusters                      30 # number of processing clusters
-gpgpu_n_cores_per_cluster                    1 # number of simd cores per cluster
-gpgpu_n_cluster_ejection_buffer_size                   32 # number of packets in ejection buffer
-gpgpu_n_ldst_response_buffer_size                    2 # number of response packets in ld/st unit ejection buffer
-gpgpu_shmem_per_block                49152 # Size of shared memory per thread block or CTA (default 48kB)
-gpgpu_shmem_size                   65536 # Size of shared memory per shader core (default 16kB)
-gpgpu_shmem_option                 32,64 # Option list of shared memory sizes
-gpgpu_unified_l1d_size                   96 # Size of unified data cache(L1D + shared memory) in KB
-gpgpu_adaptive_cache_config                    1 # adaptive_cache_config
-gpgpu_shmem_sizeDefault                65536 # Size of shared memory per shader core (default 16kB)
-gpgpu_shmem_size_PrefL1                16384 # Size of shared memory per shader core (default 16kB)
-gpgpu_shmem_size_PrefShared                16384 # Size of shared memory per shader core (default 16kB)
-gpgpu_shmem_num_banks                   32 # Number of banks in the shared memory in each shader core (default 16)
-gpgpu_shmem_limited_broadcast                    0 # Limit shared memory to do one broadcast per cycle (default on)
-gpgpu_shmem_warp_parts                    1 # Number of portions a warp is divided into for shared memory bank conflict check 
-gpgpu_mem_unit_ports                    1 # The number of memory transactions allowed per core cycle
-gpgpu_shmem_warp_parts                    1 # Number of portions a warp is divided into for shared memory bank conflict check 
-gpgpu_warpdistro_shader                   -1 # Specify which shader core to collect the warp size distribution from
-gpgpu_warp_issue_shader                    0 # Specify which shader core to collect the warp issue distribution from
-gpgpu_local_mem_map                    1 # Mapping from local memory space address to simulated GPU physical address space (default = enabled)
-gpgpu_num_reg_banks                    8 # Number of register banks (default = 8)
-gpgpu_reg_bank_use_warp_id                    0 # Use warp ID in mapping registers to banks (default = off)
-gpgpu_sub_core_model                    1 # Sub Core Volta/Pascal model (default = off)
-gpgpu_enable_specialized_operand_collector                    0 # enable_specialized_operand_collector
-gpgpu_operand_collector_num_units_sp                    4 # number of collector units (default = 4)
-gpgpu_operand_collector_num_units_dp                    0 # number of collector units (default = 0)
-gpgpu_operand_collector_num_units_sfu                    4 # number of collector units (default = 4)
-gpgpu_operand_collector_num_units_int                    0 # number of collector units (default = 0)
-gpgpu_operand_collector_num_units_tensor_core                    4 # number of collector units (default = 4)
-gpgpu_operand_collector_num_units_mem                    2 # number of collector units (default = 2)
-gpgpu_operand_collector_num_units_gen                    8 # number of collector units (default = 0)
-gpgpu_operand_collector_num_in_ports_sp                    1 # number of collector unit in ports (default = 1)
-gpgpu_operand_collector_num_in_ports_dp                    0 # number of collector unit in ports (default = 0)
-gpgpu_operand_collector_num_in_ports_sfu                    1 # number of collector unit in ports (default = 1)
-gpgpu_operand_collector_num_in_ports_int                    0 # number of collector unit in ports (default = 0)
-gpgpu_operand_collector_num_in_ports_tensor_core                    1 # number of collector unit in ports (default = 1)
-gpgpu_operand_collector_num_in_ports_mem                    1 # number of collector unit in ports (default = 1)
-gpgpu_operand_collector_num_in_ports_gen                    8 # number of collector unit in ports (default = 0)
-gpgpu_operand_collector_num_out_ports_sp                    1 # number of collector unit in ports (default = 1)
-gpgpu_operand_collector_num_out_ports_dp                    0 # number of collector unit in ports (default = 0)
-gpgpu_operand_collector_num_out_ports_sfu                    1 # number of collector unit in ports (default = 1)
-gpgpu_operand_collector_num_out_ports_int                    0 # number of collector unit in ports (default = 0)
-gpgpu_operand_collector_num_out_ports_tensor_core                    1 # number of collector unit in ports (default = 1)
-gpgpu_operand_collector_num_out_ports_mem                    1 # number of collector unit in ports (default = 1)
-gpgpu_operand_collector_num_out_ports_gen                    8 # number of collector unit in ports (default = 0)
-gpgpu_coalesce_arch                   75 # Coalescing arch (GT200 = 13, Fermi = 20)
-gpgpu_num_sched_per_core                    4 # Number of warp schedulers per core
-gpgpu_max_insn_issue_per_warp                    1 # Max number of instructions that can be issued per warp in one cycle by scheduler (either 1 or 2)
-gpgpu_dual_issue_diff_exec_units                    1 # should dual issue use two different execution unit resources (Default = 1)
-gpgpu_simt_core_sim_order                    1 # Select the simulation order of cores in a cluster (0=Fix, 1=Round-Robin)
-gpgpu_pipeline_widths 4,4,4,4,4,4,4,4,4,4,8,4,4 # Pipeline widths ID_OC_SP,ID_OC_DP,ID_OC_INT,ID_OC_SFU,ID_OC_MEM,OC_EX_SP,OC_EX_DP,OC_EX_INT,OC_EX_SFU,OC_EX_MEM,EX_WB,ID_OC_TENSOR_CORE,OC_EX_TENSOR_CORE
-gpgpu_tensor_core_avail                    1 # Tensor Core Available (default=0)
-gpgpu_num_sp_units                     4 # Number of SP units (default=1)
-gpgpu_num_dp_units                     4 # Number of DP units (default=0)
-gpgpu_num_int_units                    4 # Number of INT units (default=0)
-gpgpu_num_sfu_units                    4 # Number of SF units (default=1)
-gpgpu_num_tensor_core_units                    4 # Number of tensor_core units (default=1)
-gpgpu_num_mem_units                    1 # Number if ldst units (default=1) WARNING: not hooked up to anything
-gpgpu_scheduler                      lrr # Scheduler configuration: < lrr | gto | two_level_active > If two_level_active:<num_active_warps>:<inner_prioritization>:<outer_prioritization>For complete list of prioritization values see shader.h enum scheduler_prioritization_typeDefault: gto
-gpgpu_concurrent_kernel_sm                    0 # Support concurrent kernels on a SM (default = disabled)
-gpgpu_perfect_inst_const_cache                    1 # perfect inst and const cache mode, so all inst and const hits in the cache(default = disabled)
-gpgpu_inst_fetch_throughput                    4 # the number of fetched intruction per warp each cycle
-gpgpu_reg_file_port_throughput                    2 # the number ports of the register file
-specialized_unit_1         0,4,4,4,4,BRA # specialized unit config {<enabled>,<num_units>:<latency>:<initiation>,<ID_OC_SPEC>:<OC_EX_SPEC>,<NAME>}
-specialized_unit_2         0,4,4,4,4,BRA # specialized unit config {<enabled>,<num_units>:<latency>:<initiation>,<ID_OC_SPEC>:<OC_EX_SPEC>,<NAME>}
-specialized_unit_3         0,4,4,4,4,BRA # specialized unit config {<enabled>,<num_units>:<latency>:<initiation>,<ID_OC_SPEC>:<OC_EX_SPEC>,<NAME>}
-specialized_unit_4         0,4,4,4,4,BRA # specialized unit config {<enabled>,<num_units>:<latency>:<initiation>,<ID_OC_SPEC>:<OC_EX_SPEC>,<NAME>}
-specialized_unit_5         0,4,4,4,4,BRA # specialized unit config {<enabled>,<num_units>:<latency>:<initiation>,<ID_OC_SPEC>:<OC_EX_SPEC>,<NAME>}
-specialized_unit_6         0,4,4,4,4,BRA # specialized unit config {<enabled>,<num_units>:<latency>:<initiation>,<ID_OC_SPEC>:<OC_EX_SPEC>,<NAME>}
-specialized_unit_7         0,4,4,4,4,BRA # specialized unit config {<enabled>,<num_units>:<latency>:<initiation>,<ID_OC_SPEC>:<OC_EX_SPEC>,<NAME>}
-specialized_unit_8         0,4,4,4,4,BRA # specialized unit config {<enabled>,<num_units>:<latency>:<initiation>,<ID_OC_SPEC>:<OC_EX_SPEC>,<NAME>}
-gpgpu_perf_sim_memcpy                    1 # Fill the L2 cache on memcpy
-gpgpu_simple_dram_model                    0 # simple_dram_model with fixed latency and BW
-gpgpu_dram_scheduler                    1 # 0 = fifo, 1 = FR-FCFS (defaul)
-gpgpu_dram_partition_queues          64:64:64:64 # i2$:$2d:d2$:$2i
-l2_ideal                               0 # Use a ideal L2 cache that always hit
-gpgpu_cache:dl2     S:64:128:16,L:B:m:L:P,A:192:4,32:0,32 # unified banked L2 data cache config  {<nsets>:<bsize>:<assoc>,<rep>:<wr>:<alloc>:<wr_alloc>,<mshr>:<N>:<merge>,<mq>}
-gpgpu_cache:dl2_texture_only                    0 # L2 cache used for texture only
-gpgpu_n_mem                           12 # number of memory modules (e.g. memory controllers) in gpu
-gpgpu_n_sub_partition_per_mchannel                    2 # number of memory subpartition in each memory module
-gpgpu_n_mem_per_ctrlr                    1 # number of memory chips per memory controller
-gpgpu_memlatency_stat                   14 # track and display latency statistics 0x2 enables MC, 0x4 enables queue logs
-gpgpu_frfcfs_dram_sched_queue_size                   64 # 0 = unlimited (default); # entries per chip
-gpgpu_dram_return_queue_size                  192 # 0 = unlimited (default); # entries per chip
-gpgpu_dram_buswidth                    2 # default = 4 bytes (8 bytes per cycle at DDR)
-gpgpu_dram_burst_length                   16 # Burst length of each DRAM request (default = 4 data bus cycle)
-dram_data_command_freq_ratio                    4 # Frequency ratio between DRAM data bus and command bus (default = 2 times, i.e. DDR)
-gpgpu_dram_timing_opt nbk=16:CCD=4:RRD=12:RCD=24:RAS=55:RP=24:RC=78:CL=24:WL=8:CDLR=10:WR=24:nbkgrp=4:CCDL=6:RTPL=4 # DRAM timing parameters = {nbk:tCCD:tRRD:tRCD:tRAS:tRP:tRC:CL:WL:tCDLR:tWR:nbkgrp:tCCDL:tRTPL}
-gpgpu_l2_rop_latency                  194 # ROP queue latency (default 85)
-dram_latency                          96 # DRAM latency (default 30)
-dram_dual_bus_interface                    0 # dual_bus_interface (default = 0) 
-dram_bnk_indexing_policy                    0 # dram_bnk_indexing_policy (0 = normal indexing, 1 = Xoring with the higher bits) (Default = 0)
-dram_bnkgrp_indexing_policy                    1 # dram_bnkgrp_indexing_policy (0 = take higher bits, 1 = take lower bits) (Default = 0)
-dram_seperate_write_queue_enable                    0 # Seperate_Write_Queue_Enable
-dram_write_queue_size             32:28:16 # Write_Queue_Size
-dram_elimnate_rw_turnaround                    0 # elimnate_rw_turnaround i.e set tWTR and tRTW = 0
-icnt_flit_size                        40 # icnt_flit_size
-icnt_flit_size                        40 # icnt_flit_size
-mem_profiler                           0 # memory access runtime profiling (0 = not enabled)
-gpgpu_mem_addr_mapping dramid@8;00000000.00000000.00000000.00000000.0000RRRR.RRRRRRRR.RBBBCCCC.BCCSSSSS # mapping memory address to dram model {dramid@<start bit>;<memory address map>}
-gpgpu_mem_addr_test                    0 # run sweep test to check address mapping for aliased address
-gpgpu_mem_address_mask                    1 # 0 = old addressing mask, 1 = new addressing mask, 2 = new add. mask + flipped bank sel and chip sel bits
-gpgpu_memory_partition_indexing                    0 # 0 = no indexing, 1 = bitwise xoring, 2 = IPoly, 3 = custom indexing
-accelwattch_xml_file accelwattch_sass_sim.xml # AccelWattch XML file
-power_simulation_enabled                    1 # Turn on power simulator (1=On, 0=Off)
-power_per_cycle_dump                    1 # Dump detailed power output each cycle
-hw_perf_file_name            hw_perf.csv # Hardware Performance Statistics file
-hw_perf_bench_name    hw_perf_bench_name # Kernel Name in Hardware Performance Statistics file
-power_simulation_mode                    0 # Switch performance counter input for power simulation (0=Sim, 1=HW, 2=HW-Sim Hybrid)
-dvfs_enabled                           1 # Turn on DVFS for power model
-aggregate_power_stats                    0 # Accumulate power across all kernels
-accelwattch_hybrid_perfsim_L1_RH                    0 # Get L1 Read Hits for Accelwattch-Hybrid from Accel-Sim
-accelwattch_hybrid_perfsim_L1_RM                    0 # Get L1 Read Misses for Accelwattch-Hybrid from Accel-Sim
-accelwattch_hybrid_perfsim_L1_WH                    0 # Get L1 Write Hits for Accelwattch-Hybrid from Accel-Sim
-accelwattch_hybrid_perfsim_L1_WM                    0 # Get L1 Write Misses for Accelwattch-Hybrid from Accel-Sim
-accelwattch_hybrid_perfsim_L2_RH                    0 # Get L2 Read Hits for Accelwattch-Hybrid from Accel-Sim
-accelwattch_hybrid_perfsim_L2_RM                    0 # Get L2 Read Misses for Accelwattch-Hybrid from Accel-Sim
-accelwattch_hybrid_perfsim_L2_WH                    0 # Get L2 Write Hits for Accelwattch-Hybrid from Accel-Sim
-accelwattch_hybrid_perfsim_L2_WM                    0 # Get L2 Write Misses for Accelwattch-Hybrid from Accel-Sim
-accelwattch_hybrid_perfsim_CC_ACC                    0 # Get Constant Cache Acesses for Accelwattch-Hybrid from Accel-Sim
-accelwattch_hybrid_perfsim_SHARED_ACC                    0 # Get Shared Memory Acesses for Accelwattch-Hybrid from Accel-Sim
-accelwattch_hybrid_perfsim_DRAM_RD                    0 # Get DRAM Reads for Accelwattch-Hybrid from Accel-Sim
-accelwattch_hybrid_perfsim_DRAM_WR                    0 # Get DRAM Writes for Accelwattch-Hybrid from Accel-Sim
-accelwattch_hybrid_perfsim_NOC                    0 # Get Interconnect Acesses for Accelwattch-Hybrid from Accel-Sim
-accelwattch_hybrid_perfsim_PIPE_DUTY                    0 # Get Pipeline Duty Cycle Acesses for Accelwattch-Hybrid from Accel-Sim
-accelwattch_hybrid_perfsim_NUM_SM_IDLE                    0 # Get Number of Idle SMs for Accelwattch-Hybrid from Accel-Sim
-accelwattch_hybrid_perfsim_CYCLES                    0 # Get Executed Cycles for Accelwattch-Hybrid from Accel-Sim
-accelwattch_hybrid_perfsim_VOLTAGE                    0 # Get Chip Voltage for Accelwattch-Hybrid from Accel-Sim
-power_trace_enabled                    0 # produce a file for the power trace (1=On, 0=Off)
-power_trace_zlevel                     0 # Compression level of the power trace output log (0=no comp, 9=highest)
-steady_power_levels_enabled                    0 # produce a file for the steady power levels (1=On, 0=Off)
-steady_state_definition                  8:4 # allowed deviation:number of samples
-gpgpu_max_cycle                        0 # terminates gpu simulation early (0 = no limit)
-gpgpu_max_insn                         0 # terminates gpu simulation early (0 = no limit)
-gpgpu_max_cta                          0 # terminates gpu simulation early (0 = no limit)
-gpgpu_max_completed_cta                    0 # terminates gpu simulation early (0 = no limit)
-gpgpu_runtime_stat                  1000 # display runtime statistics such as dram utilization {<freq>:<flag>}
-liveness_message_freq                    1 # Minimum number of seconds between simulation liveness messages (0 = always print)
-gpgpu_compute_capability_major                    7 # Major compute capability version number
-gpgpu_compute_capability_minor                    5 # Minor compute capability version number
-gpgpu_flush_l1_cache                    1 # Flush L1 cache at the end of each kernel call
-gpgpu_flush_l2_cache                    0 # Flush L2 cache at the end of each kernel call
-gpgpu_deadlock_detect                    1 # Stop the simulation at deadlock (1=on (default), 0=off)
-gpgpu_ptx_instruction_classification                    0 # if enabled will classify ptx instruction types per kernel (Max 255 kernels now)
-gpgpu_ptx_sim_mode                     0 # Select between Performance (default) or Functional simulation (1)
-gpgpu_clock_domains 1365:1365:1365:3500.5 # Clock Domain Frequencies in MhZ {<Core Clock>:<ICNT Clock>:<L2 Clock>:<DRAM Clock>}
-gpgpu_max_concurrent_kernel                  128 # maximum kernels that can run concurrently on GPU, set this value according to max resident grids for your compute capability
-gpgpu_cflog_interval                    0 # Interval between each snapshot in control flow logger
-visualizer_enabled                     0 # Turn on visualizer output (1=On, 0=Off)
-visualizer_outputfile                 NULL # Specifies the output log file for visualizer
-visualizer_zlevel                      6 # Compression level of the visualizer output log (0=no comp, 9=highest)
-gpgpu_stack_size_limit                 1024 # GPU thread stack size
-gpgpu_heap_size_limit              8388608 # GPU malloc heap size 
-gpgpu_runtime_sync_depth_limit                    2 # GPU device runtime synchronize depth
-gpgpu_runtime_pending_launch_count_limit                 2048 # GPU device runtime pending launch count
-trace_enabled                          0 # Turn on traces
-trace_components                    none # comma seperated list of traces to enable. Complete list found in trace_streams.tup. Default none
-trace_sampling_core                    0 # The core which is printed using CORE_DPRINTF. Default 0
-trace_sampling_memory_partition                   -1 # The memory partition which is printed using MEMPART_DPRINTF. Default -1 (i.e. all)
-enable_ptx_file_line_stats                    1 # Turn on PTX source line statistic profiling. (1 = On)
-ptx_line_stats_filename gpgpu_inst_stats.txt # Output file for PTX source line statistics.
-gpgpu_kernel_launch_latency                 5000 # Kernel launch latency in cycles. Default: 0
-gpgpu_cdp_enabled                      0 # Turn on CDP
-gpgpu_TB_launch_latency                    0 # thread block launch latency in cycles. Default: 0
-mem_runtime_stat                     100 # memory access runtime profiling sampling849372315c13957bc671de4b81b61bb9  /home/pars/Documents/sim_7/cc_base
Extracting PTX file and ptxas options    1: cc_base.1.sm_75.ptx -arch=sm_75
 freq
-L1D_metrics                            0 # memory access runtime profiling for L1 data cache
-IPC_per_prof_interval                    0 # IPC per profiling interval
-instruction_monitor                    0 # Instruction monitor
-noncoal_metrics                        0 # memory access runtime profiling for shared memory
-L2_metrics                             0 # memory access runtime profiling for L2 cache
-DRAM_metrics                           0 # memory access runtime profiling for DRAM
-Shmem_metrics                          0 # memory access runtime profiling for noncoalesced accesses
-store_enable                           0 # Enable stores for memory profiling
-accumulate_stats                       0 # Accumulate stats for the memory profiling
-dump_enable                            0 # Process dump enable flag - (def = 0)
-flush_l1d                              0 # Enable flushings for L1D caches - (default = 0)
-flush_l2                               0 # Enable flushings for L2 caches - (default = 0)
-flush_dram                             0 # Enable flushings for DRAM - (default = 0)
-flush_noncoalesceds                    0 # Enable flushings for non coalesced accesses - (default = 0)
-flush_shmems                           0 # Enable flushings for shared memory accesses - (default = 0)
-error_percentage          21474836480001 # Error percentage for the flushes - (default = 1)
-dump_sampling_cycle       21474836485000 # Dump sampling frequency - (default = 5000)
-flush_acc_type                         2 # Flush access types
-monitor_sampling_cycle                 5000 # Monitoring sampling cycle - (default = 5000)
DRAM Timing Options:
nbk                                    16 # number of banks
CCD                                     4 # column to column delay
RRD                                    12 # minimal delay between activation of rows in different banks
RCD                                    24 # row to column delay
RAS                                    55 # time needed to activate row
RP                                     24 # time needed to precharge (deactivate) row
RC                                     78 # row cycle time
CDLR                                   10 # switching from write to read (changes tWTR)
WR                                     24 # last data-in to row precharge
CL                                     24 # CAS latency
WL                                      8 # Write latency
nbkgrp                                  4 # number of bank groups
CCDL                                    6 # column to column delay between accesses to different bank groups
RTPL                                    4 # read to precharge delay between accesses to different bank groups
Total number of memory sub partition = 24
addr_dec_mask[CHIP]  = 0000000000000000 	high:64 low:0
addr_dec_mask[BK]    = 0000000000007080 	high:15 low:7
addr_dec_mask[ROW]   = 000000000fff8000 	high:28 low:15
addr_dec_mask[COL]   = 0000000000000f7f 	high:12 low:0
addr_dec_mask[BURST] = 000000000000001f 	high:5 low:0
sub_partition_id_mask = 0000000000000080
GPGPU-Sim uArch: clock freqs: 1365000000.000000:1365000000.000000:1365000000.000000:3500500000.000000
GPGPU-Sim uArch: clock periods: 0.00000000073260073260:0.00000000073260073260:0.00000000073260073260:0.00000000028567347522
*** Initializing Memory Statistics ***
GPGPU-Sim uArch: performance model initialization complete.
self exe links to: /home/pars/Documents/sim_7/cc_base
self exe links to: /home/pars/Documents/sim_7/cc_base
11.0
GPGPU-Sim PTX: __cudaRegisterFatBinary, fat_cubin_handle = 1, filename=default
self exe links to: /home/pars/Documents/sim_7/cc_base
Running md5sum using "md5sum /home/pars/Documents/sim_7/cc_base "
self exe links to: /home/pars/Documents/sim_7/cc_base
Extracting specific PTX file named cc_base.1.sm_75.ptx 
GPGPU-Sim PTX: __cudaRegisterFunction _Z8shortcutiPi : hostFun 0x0x556e7d257dd1, fat_cubin_handle = 1
GPGPU-Sim PTX: Parsing cc_base.1.sm_75.ptx
GPGPU-Sim PTX: Warning -- ignoring pragma 'nounroll'
GPGPU-Sim PTX: instruction assembly for function '_Z4hookiPKmPKiPiPb'...   done.
GPGPU-Sim PTX: instruction assembly for function '_Z8shortcutiPi'...   done.
GPGPU-Sim PTX: finished parsing EMBEDDED .ptx file cc_base.1.sm_75.ptx
GPGPU-Sim PTX: loading globals with explicit initializers... 
GPGPU-Sim PTX: finished loading globals (0 bytes total).
GPGPU-Sim PTX: loading constants with explicit initializers...  done.
GPGPU-Sim PTX: Loading PTXInfo from cc_base.1.sm_75.ptx
GPGPU-Sim PTX: Kernel '_Z8shortcutiPi' : regs=12, lmem=0, smem=0, cmem=368
GPGPU-Sim PTX: Kernel '_Z4hookiPKmPKiPiPb' : regs=18, lmem=0, smem=0, cmem=392
GPGPU-Sim PTX: __cudaRegisterFunction _Z4hookiPKmPKiPiPb : hostFun 0x0x556e7d257c56, fat_cubin_handle = 1
Connected Component by Xuhao Chen
Reading (.mtx) input file ../CudaBenchmarks/gardenia/datasets/web-Google.mtx
Removing redundent edges... 1565976 redundent edges are removed
|V| 916428 |E| 8644102
This graph is symmetrized
Launching CUDA CC solver (3580 CTAs, 256 threads/CTA) ...
GPGPU-Sim PTX: Setting up arguments for 4 bytes starting at 0x7ffec323e8cc..
GPGPU-Sim PTX: Setting up arguments for 8 bytes starting at 0x7ffec323e8c0..
GPGPU-Sim PTX: Setting up arguments for 8 bytes starting at 0x7ffec323e8b8..
GPGPU-Sim PTX: Setting up arguments for 8 bytes starting at 0x7ffec323e8b0..
GPGPU-Sim PTX: Setting up arguments for 8 bytes starting at 0x7ffec323e8a8..

GPGPU-Sim PTX: cudaLaunch for 0x0x556e7d257c56 (mode=performance simulation) on stream 0
GPGPU-Sim PTX: finding reconvergence points for '_Z4hookiPKmPKiPiPb'...
GPGPU-Sim PTX: Finding dominators for '_Z4hookiPKmPKiPiPb'...
GPGPU-Sim PTX: Finding immediate dominators for '_Z4hookiPKmPKiPiPb'...
GPGPU-Sim PTX: Finding postdominators for '_Z4hookiPKmPKiPiPb'...
GPGPU-Sim PTX: Finding immediate postdominators for '_Z4hookiPKmPKiPiPb'...
GPGPU-Sim PTX: pre-decoding instructions for '_Z4hookiPKmPKiPiPb'...
GPGPU-Sim PTX: reconvergence points for _Z4hookiPKmPKiPiPb...
GPGPU-Sim PTX:  1 (potential) branch divergence @  PC=0x068 (cc_base.1.sm_75.ptx:42) @%p1 bra $L__BB0_23;

GPGPU-Sim PTX:    immediate post dominator      @  PC=0x408 (cc_base.1.sm_75.ptx:201) ret;

GPGPU-Sim PTX:  2 (potential) branch divergence @  PC=0x0b8 (cc_base.1.sm_75.ptx:53) @%p2 bra $L__BB0_23;

GPGPU-Sim PTX:    immediate post dominator      @  PC=0x408 (cc_base.1.sm_75.ptx:201) ret;

GPGPU-Sim PTX:  3 (potential) branch divergence @  PC=0x0e0 (cc_base.1.sm_75.ptx:59) @%p3 bra $L__BB0_8;

GPGPU-Sim PTX:    immediate post dominator      @  PC=0x1b0 (cc_base.1.sm_75.ptx:97) not.b32 %r33, %r3;

GPGPU-Sim PTX:  4 (potential) branch divergence @  PC=0x130 (cc_base.1.sm_75.ptx:75) @%p4 bra $L__BB0_7;

GPGPU-Sim PTX:    immediate post dominator      @  PC=0x188 (cc_base.1.sm_75.ptx:90) add.s32 %r57, %r57, 1;

GPGPU-Sim PTX:  5 (potential) branch divergence @  PC=0x170 (cc_base.1.sm_75.ptx:84) @%p5 bra $L__BB0_7;

GPGPU-Sim PTX:    immediate post dominator      @  PC=0x188 (cc_base.1.sm_75.ptx:90) add.s32 %r57, %r57, 1;

GPGPU-Sim PTX:  6 (potential) branch divergence @  PC=0x1a8 (cc_base.1.sm_75.ptx:94) @%p6 bra $L__BB0_4;

GPGPU-Sim PTX:    immediate post dominator      @  PC=0x1b0 (cc_base.1.sm_75.ptx:97) not.b32 %r33, %r3;

GPGPU-Sim PTX:  7 (potential) branch divergence @  PC=0x1c8 (cc_base.1.sm_75.ptx:100) @%p7 bra $L__BB0_23;

GPGPU-Sim PTX:    immediate post dominator      @  PC=0x408 (cc_base.1.sm_75.ptx:201) ret;

GPGPU-Sim PTX:  8 (potential) branch divergence @  PC=0x210 (cc_base.1.sm_75.ptx:114) @%p8 bra $L__BB0_13;

GPGPU-Sim PTX:    immediate post dominator      @  PC=0x268 (cc_base.1.sm_75.ptx:129) ld.global.u32 %r41, [%rd42+4];

GPGPU-Sim PTX:  9 (potential) branch divergence @  PC=0x250 (cc_base.1.sm_75.ptx:123) @%p9 bra $L__BB0_13;

GPGPU-Sim PTX:    immediate post dominator      @  PC=0x268 (cc_base.1.sm_75.ptx:129) ld.global.u32 %r41, [%rd42+4];

GPGPU-Sim PTX: 10 (potential) branch divergence @  PC=0x290 (cc_base.1.sm_75.ptx:136) @%p10 bra $L__BB0_16;

GPGPU-Sim PTX:    immediate post dominator      @  PC=0x2e8 (cc_base.1.sm_75.ptx:151) ld.global.u32 %r46, [%rd42+8];

GPGPU-Sim PTX: 11 (potential) branch divergence @  PC=0x2d0 (cc_base.1.sm_75.ptx:145) @%p11 bra $L__BB0_16;

GPGPU-Sim PTX:    immediate post dominator      @  PC=0x2e8 (cc_base.1.sm_75.ptx:151) ld.global.u32 %r46, [%rd42+8];

GPGPU-Sim PTX: 12 (potential) branch divergence @  PC=0x310 (cc_base.1.sm_75.ptx:158) @%p12 bra $L__BB0_19;

GPGPU-Sim PTX:    immediate post dominator      @  PC=0x368 (cc_base.1.sm_75.ptx:173) ld.global.u32 %r51, [%rd42+12];

GPGPU-Sim PTX: 13 (potential) branch divergence @  PC=0x350 (cc_base.1.sm_75.ptx:167) @%p13 bra $L__BB0_19;

GPGPU-Sim PTX:    immediate post dominator      @  PC=0x368 (cc_base.1.sm_75.ptx:173) ld.global.u32 %r51, [%rd42+12];

GPGPU-Sim PTX: 14 (potential) branch divergence @  PC=0x390 (cc_base.1.sm_75.ptx:180) @%p14 bra $L__BB0_22;

GPGPU-Sim PTX:    immediate post dominator      @  PC=0x3e8 (cc_base.1.sm_75.ptx:195) add.s32 %r57, %r57, 4;

GPGPU-Sim PTX: 15 (potential) branch divergence @  PC=0x3d0 (cc_base.1.sm_75.ptx:189) @%p15 bra $L__BB0_22;

GPGPU-Sim PTX:    immediate post dominator      @  PC=0x3e8 (cc_base.1.sm_75.ptx:195) add.s32 %r57, %r57, 4;

GPGPU-Sim PTX: 16 (potential) branch divergence @  PC=0x400 (cc_base.1.sm_75.ptx:198) @%p16 bra $L__BB0_10;

GPGPU-Sim PTX:    immediate post dominator      @  PC=0x408 (cc_base.1.sm_75.ptx:201) ret;

GPGPU-Sim PTX: ... end of reconvergence points for _Z4hookiPKmPKiPiPb
GPGPU-Sim PTX: ... done pre-decoding instructions for '_Z4hookiPKmPKiPiPb'.
GPGPU-Sim PTX: pushing kernel '_Z4hookiPKmPKiPiPb' to stream 0, gridDim= (3580,1,1) blockDim = (256,1,1) 
GPGPU-Sim uArch: Shader 0 bind to kernel 1 '_Z4hookiPKmPKiPiPb'
GPGPU-Sim uArch: CTA/core = 4, limited by: threads
GPGPU-Sim: Reconfigure L1 cache to 64KB
GPGPU-Sim uArch: Shader 1 bind to kernel 1 '_Z4hookiPKmPKiPiPb'
GPGPU-Sim uArch: Shader 2 bind to kernel 1 '_Z4hookiPKmPKiPiPb'
GPGPU-Sim uArch: Shader 3 bind to kernel 1 '_Z4hookiPKmPKiPiPb'
GPGPU-Sim uArch: Shader 4 bind to kernel 1 '_Z4hookiPKmPKiPiPb'
GPGPU-Sim uArch: Shader 5 bind to kernel 1 '_Z4hookiPKmPKiPiPb'
GPGPU-Sim uArch: Shader 6 bind to kernel 1 '_Z4hookiPKmPKiPiPb'
GPGPU-Sim uArch: Shader 7 bind to kernel 1 '_Z4hookiPKmPKiPiPb'
GPGPU-Sim uArch: Shader 8 bind to kernel 1 '_Z4hookiPKmPKiPiPb'
GPGPU-Sim uArch: Shader 9 bind to kernel 1 '_Z4hookiPKmPKiPiPb'
GPGPU-Sim uArch: Shader 10 bind to kernel 1 '_Z4hookiPKmPKiPiPb'
GPGPU-Sim uArch: Shader 11 bind to kernel 1 '_Z4hookiPKmPKiPiPb'
GPGPU-Sim uArch: Shader 12 bind to kernel 1 '_Z4hookiPKmPKiPiPb'
GPGPU-Sim uArch: Shader 13 bind to kernel 1 '_Z4hookiPKmPKiPiPb'
GPGPU-Sim uArch: Shader 14 bind to kernel 1 '_Z4hookiPKmPKiPiPb'
GPGPU-Sim uArch: Shader 15 bind to kernel 1 '_Z4hookiPKmPKiPiPb'
GPGPU-Sim uArch: Shader 16 bind to kernel 1 '_Z4hookiPKmPKiPiPb'
GPGPU-Sim uArch: Shader 17 bind to kernel 1 '_Z4hookiPKmPKiPiPb'
GPGPU-Sim uArch: Shader 18 bind to kernel 1 '_Z4hookiPKmPKiPiPb'
GPGPU-Sim uArch: Shader 19 bind to kernel 1 '_Z4hookiPKmPKiPiPb'
GPGPU-Sim uArch: Shader 20 bind to kernel 1 '_Z4hookiPKmPKiPiPb'
GPGPU-Sim uArch: Shader 21 bind to kernel 1 '_Z4hookiPKmPKiPiPb'
GPGPU-Sim uArch: Shader 22 bind to kernel 1 '_Z4hookiPKmPKiPiPb'
GPGPU-Sim uArch: Shader 23 bind to kernel 1 '_Z4hookiPKmPKiPiPb'
GPGPU-Sim uArch: Shader 24 bind to kernel 1 '_Z4hookiPKmPKiPiPb'
GPGPU-Sim uArch: Shader 25 bind to kernel 1 '_Z4hookiPKmPKiPiPb'
GPGPU-Sim uArch: Shader 26 bind to kernel 1 '_Z4hookiPKmPKiPiPb'
GPGPU-Sim uArch: Shader 27 bind to kernel 1 '_Z4hookiPKmPKiPiPb'
GPGPU-Sim uArch: Shader 28 bind to kernel 1 '_Z4hookiPKmPKiPiPb'
GPGPU-Sim uArch: Shader 29 bind to kernel 1 '_Z4hookiPKmPKiPiPb'
Destroy streams for kernel 1: size 0
kernel_name = _Z4hookiPKmPKiPiPb 
kernel_launch_uid = 1 
gpu_sim_cycle = 7172764
gpu_sim_insn = 137336819
gpu_ipc =      19.1470
gpu_tot_sim_cycle = 7172764
gpu_tot_sim_insn = 137336819
gpu_tot_ipc =      19.1470
gpu_tot_issued_cta = 3580
gpu_occupancy = 28.1218% 
gpu_tot_occupancy = 28.1218% 
max_total_param_size = 0
gpu_stall_dramfull = 56561
gpu_stall_icnt2sh    = 0
partiton_level_parallism =       2.0553
partiton_level_parallism_total  =       2.0553
partiton_level_parallism_util =       3.2515
partiton_level_parallism_util_total  =       3.2515
L2_BW  =      89.7740 GB/Sec
L2_BW_total  =      89.7740 GB/Sec
gpu_total_sim_rate=4529

========= Core cache stats =========
L1I_cache:
	L1I_total_cache_accesses = 0
	L1I_total_cache_misses = 0
	L1I_total_cache_pending_hits = 0
	L1I_total_cache_reservation_fails = 0
L1D_cache:
	L1D_cache_core[0]: Access = 830429, Miss = 467661, Miss_rate = 0.563, Pending_hits = 10008, Reservation_fails = 127953
	L1D_cache_core[1]: Access = 847408, Miss = 481629, Miss_rate = 0.568, Pending_hits = 10024, Reservation_fails = 126247
	L1D_cache_core[2]: Access = 758284, Miss = 430693, Miss_rate = 0.568, Pending_hits = 9108, Reservation_fails = 129818
	L1D_cache_core[3]: Access = 957107, Miss = 564899, Miss_rate = 0.590, Pending_hits = 11865, Reservation_fails = 166473
	L1D_cache_core[4]: Access = 905796, Miss = 526208, Miss_rate = 0.581, Pending_hits = 11357, Reservation_fails = 155294
	L1D_cache_core[5]: Access = 713170, Miss = 402301, Miss_rate = 0.564, Pending_hits = 8403, Reservation_fails = 116488
	L1D_cache_core[6]: Access = 837169, Miss = 474912, Miss_rate = 0.567, Pending_hits = 10260, Reservation_fails = 140002
	L1D_cache_core[7]: Access = 636608, Miss = 330024, Miss_rate = 0.518, Pending_hits = 6942, Reservation_fails = 85931
	L1D_cache_core[8]: Access = 799448, Miss = 452722, Miss_rate = 0.566, Pending_hits = 9726, Reservation_fails = 127389
	L1D_cache_core[9]: Access = 872982, Miss = 498301, Miss_rate = 0.571, Pending_hits = 10517, Reservation_fails = 150966
	L1D_cache_core[10]: Access = 802702, Miss = 439316, Miss_rate = 0.547, Pending_hits = 9483, Reservation_fails = 122384
	L1D_cache_core[11]: Access = 670509, Miss = 361899, Miss_rate = 0.540, Pending_hits = 7393, Reservation_fails = 106572
	L1D_cache_core[12]: Access = 939988, Miss = 559830, Miss_rate = 0.596, Pending_hits = 11348, Reservation_fails = 163421
	L1D_cache_core[13]: Access = 802453, Miss = 458740, Miss_rate = 0.572, Pending_hits = 9729, Reservation_fails = 126278
	L1D_cache_core[14]: Access = 633565, Miss = 355190, Miss_rate = 0.561, Pending_hits = 7345, Reservation_fails = 102529
	L1D_cache_core[15]: Access = 936497, Miss = 536716, Miss_rate = 0.573, Pending_hits = 11599, Reservation_fails = 150015
	L1D_cache_core[16]: Access = 788942, Miss = 441871, Miss_rate = 0.560, Pending_hits = 9211, Reservation_fails = 128892
	L1D_cache_core[17]: Access = 678987, Miss = 366984, Miss_rate = 0.540, Pending_hits = 7681, Reservation_fails = 99501
	L1D_cache_core[18]: Access = 713599, Miss = 391703, Miss_rate = 0.549, Pending_hits = 8404, Reservation_fails = 110206
	L1D_cache_core[19]: Access = 1107454, Miss = 669123, Miss_rate = 0.604, Pending_hits = 14038, Reservation_fails = 194547
	L1D_cache_core[20]: Access = 669468, Miss = 365989, Miss_rate = 0.547, Pending_hits = 7561, Reservation_fails = 105229
	L1D_cache_core[21]: Access = 781898, Miss = 432454, Miss_rate = 0.553, Pending_hits = 9117, Reservation_fails = 125866
	L1D_cache_core[22]: Access = 947252, Miss = 561933, Miss_rate = 0.593, Pending_hits = 11564, Reservation_fails = 171018
	L1D_cache_core[23]: Access = 825665, Miss = 458551, Miss_rate = 0.555, Pending_hits = 9744, Reservation_fails = 124219
	L1D_cache_core[24]: Access = 778261, Miss = 449910, Miss_rate = 0.578, Pending_hits = 9224, Reservation_fails = 122934
	L1D_cache_core[25]: Access = 919154, Miss = 516760, Miss_rate = 0.562, Pending_hits = 11234, Reservation_fails = 134039
	L1D_cache_core[26]: Access = 607935, Miss = 326476, Miss_rate = 0.537, Pending_hits = 6742, Reservation_fails = 96478
	L1D_cache_core[27]: Access = 926880, Miss = 541115, Miss_rate = 0.584, Pending_hits = 11336, Reservation_fails = 153740
	L1D_cache_core[28]: Access = 737134, Miss = 394611, Miss_rate = 0.535, Pending_hits = 8332, Reservation_fails = 100072
	L1D_cache_core[29]: Access = 644605, Miss = 345696, Miss_rate = 0.536, Pending_hits = 7273, Reservation_fails = 94311
	L1D_total_cache_accesses = 24071349
	L1D_total_cache_misses = 13604217
	L1D_total_cache_miss_rate = 0.5652
	L1D_total_cache_pending_hits = 286568
	L1D_total_cache_reservation_fails = 3858812
	L1D_cache_data_port_util = 0.062
	L1D_cache_fill_port_util = 0.083
L1C_cache:
	L1C_total_cache_accesses = 0
	L1C_total_cache_misses = 0
	L1C_total_cache_pending_hits = 0
	L1C_total_cache_reservation_fails = 0
L1T_cache:
	L1T_total_cache_accesses = 0
	L1T_total_cache_misses = 0
	L1T_total_cache_pending_hits = 0
	L1T_total_cache_reservation_fails = 0

Total_core_cache_stats:
	Total_core_cache_stats_breakdown[GLOBAL_ACC_R][HIT] = 9042895
	Total_core_cache_stats_breakdown[GLOBAL_ACC_R][HIT_RESERVED] = 286513
	Total_core_cache_stats_breakdown[GLOBAL_ACC_R][MISS] = 11755611
	Total_core_cache_stats_breakdown[GLOBAL_ACC_R][RESERVATION_FAIL] = 3842097
	Total_core_cache_stats_breakdown[GLOBAL_ACC_R][SECTOR_MISS] = 1816374
	Total_core_cache_stats_breakdown[GLOBAL_ACC_R][MSHR_HIT] = 286517
	Total_core_cache_stats_breakdown[LOCAL_ACC_R][HIT] = 0
	Total_core_cache_stats_breakdown[LOCAL_ACC_R][HIT_RESERVED] = 0
	Total_core_cache_stats_breakdown[LOCAL_ACC_R][MISS] = 0
	Total_core_cache_stats_breakdown[LOCAL_ACC_R][RESERVATION_FAIL] = 0
	Total_core_cache_stats_breakdown[LOCAL_ACC_R][SECTOR_MISS] = 0
	Total_core_cache_stats_breakdown[LOCAL_ACC_R][MSHR_HIT] = 0
	Total_core_cache_stats_breakdown[CONST_ACC_R][HIT] = 0
	Total_core_cache_stats_breakdown[CONST_ACC_R][HIT_RESERVED] = 0
	Total_core_cache_stats_breakdown[CONST_ACC_R][MISS] = 0
	Total_core_cache_stats_breakdown[CONST_ACC_R][RESERVATION_FAIL] = 0
	Total_core_cache_stats_breakdown[CONST_ACC_R][SECTOR_MISS] = 0
	Total_core_cache_stats_breakdown[CONST_ACC_R][MSHR_HIT] = 0
	Total_core_cache_stats_breakdown[TEXTURE_ACC_R][HIT] = 0
	Total_core_cache_stats_breakdown[TEXTURE_ACC_R][HIT_RESERVED] = 0
	Total_core_cache_stats_breakdown[TEXTURE_ACC_R][MISS] = 0
	Total_core_cache_stats_breakdown[TEXTURE_ACC_R][RESERVATION_FAIL] = 0
	Total_core_cache_stats_breakdown[TEXTURE_ACC_R][SECTOR_MISS] = 0
	Total_core_cache_stats_breakdown[TEXTURE_ACC_R][MSHR_HIT] = 0
	Total_core_cache_stats_breakdown[GLOBAL_ACC_W][HIT] = 1137669
	Total_core_cache_stats_breakdown[GLOBAL_ACC_W][HIT_RESERVED] = 55
	Total_core_cache_stats_breakdown[GLOBAL_ACC_W][MISS] = 31374
	Total_core_cache_stats_breakdown[GLOBAL_ACC_W][RESERVATION_FAIL] = 16715
	Total_core_cache_stats_breakdown[GLOBAL_ACC_W][SECTOR_MISS] = 858
	Total_core_cache_stats_breakdown[GLOBAL_ACC_W][MSHR_HIT] = 0
	Total_core_cache_stats_breakdown[LOCAL_ACC_W][HIT] = 0
	Total_core_cache_stats_breakdown[LOCAL_ACC_W][HIT_RESERVED] = 0
	Total_core_cache_stats_breakdown[LOCAL_ACC_W][MISS] = 0
	Total_core_cache_stats_breakdown[LOCAL_ACC_W][RESERVATION_FAIL] = 0
	Total_core_cache_stats_breakdown[LOCAL_ACC_W][SECTOR_MISS] = 0
	Total_core_cache_stats_breakdown[LOCAL_ACC_W][MSHR_HIT] = 0
	Total_core_cache_stats_breakdown[L1_WRBK_ACC][HIT] = 0
	Total_core_cache_stats_breakdown[L1_WRBK_ACC][HIT_RESERVED] = 0
	Total_core_cache_stats_breakdown[L1_WRBK_ACC][MISS] = 0
	Total_core_cache_stats_breakdown[L1_WRBK_ACC][RESERVATION_FAIL] = 0
	Total_core_cache_stats_breakdown[L1_WRBK_ACC][SECTOR_MISS] = 0
	Total_core_cache_stats_breakdown[L1_WRBK_ACC][MSHR_HIT] = 0
	Total_core_cache_stats_breakdown[L2_WRBK_ACC][HIT] = 0
	Total_core_cache_stats_breakdown[L2_WRBK_ACC][HIT_RESERVED] = 0
	Total_core_cache_stats_breakdown[L2_WRBK_ACC][MISS] = 0
	Total_core_cache_stats_breakdown[L2_WRBK_ACC][RESERVATION_FAIL] = 0
	Total_core_cache_stats_breakdown[L2_WRBK_ACC][SECTOR_MISS] = 0
	Total_core_cache_stats_breakdown[L2_WRBK_ACC][MSHR_HIT] = 0
	Total_core_cache_stats_breakdown[INST_ACC_R][HIT] = 0
	Total_core_cache_stats_breakdown[INST_ACC_R][HIT_RESERVED] = 0
	Total_core_cache_stats_breakdown[INST_ACC_R][MISS] = 0
	Total_core_cache_stats_breakdown[INST_ACC_R][RESERVATION_FAIL] = 0
	Total_core_cache_stats_breakdown[INST_ACC_R][SECTOR_MISS] = 0
	Total_core_cache_stats_breakdown[INST_ACC_R][MSHR_HIT] = 0
	Total_core_cache_stats_breakdown[L1_WR_ALLOC_R][HIT] = 0
	Total_core_cache_stats_breakdown[L1_WR_ALLOC_R][HIT_RESERVED] = 0
	Total_core_cache_stats_breakdown[L1_WR_ALLOC_R][MISS] = 0
	Total_core_cache_stats_breakdown[L1_WR_ALLOC_R][RESERVATION_FAIL] = 0
	Total_core_cache_stats_breakdown[L1_WR_ALLOC_R][SECTOR_MISS] = 0
	Total_core_cache_stats_breakdown[L1_WR_ALLOC_R][MSHR_HIT] = 0
	Total_core_cache_stats_breakdown[L2_WR_ALLOC_R][HIT] = 0
	Total_core_cache_stats_breakdown[L2_WR_ALLOC_R][HIT_RESERVED] = 0
	Total_core_cache_stats_breakdown[L2_WR_ALLOC_R][MISS] = 0
	Total_core_cache_stats_breakdown[L2_WR_ALLOC_R][RESERVATION_FAIL] = 0
	Total_core_cache_stats_breakdown[L2_WR_ALLOC_R][SECTOR_MISS] = 0
	Total_core_cache_stats_breakdown[L2_WR_ALLOC_R][MSHR_HIT] = 0
	Total_core_cache_stats_breakdown[GLOBAL_ACC_R][TOTAL_ACCESS] = 22901393
	Total_core_cache_stats_breakdown[GLOBAL_ACC_W][TOTAL_ACCESS] = 1169956

Total_core_cache_fail_stats:
	Total_core_cache_fail_stats_breakdown[GLOBAL_ACC_R][MISS_QUEUE_FULL] = 2583056
	Total_core_cache_fail_stats_breakdown[GLOBAL_ACC_R][MSHR_ENRTY_FAIL] = 1259041
	Total_core_cache_fail_stats_breakdown[GLOBAL_ACC_W][MISS_QUEUE_FULL] = 16715
ctas_completed 3580, Shader 0 warp_id issue ditsribution:
warp_id:
0, 1, 2, 3, 4, 5, 6, 7, 8, 9, 10, 11, 12, 13, 14, 15, 16, 17, 18, 19, 20, 21, 22, 23, 24, 25, 26, 27, 28, 29, 30, 31, 
distro:
33706, 108000, 26786, 25984, 26080, 37232, 22702, 31250, 25246, 54170, 32058, 34580, 38940, 53320, 33678, 42648, 31210, 49086, 32154, 30700, 26074, 42490, 30976, 30528, 28422, 22456, 62792, 19424, 21046, 27108, 17242, 17824, 
gpgpu_n_tot_thrd_icount = 1040586880
gpgpu_n_tot_w_icount = 32518340
gpgpu_n_stall_shd_mem = 7139973
gpgpu_n_mem_read_local = 0
gpgpu_n_mem_write_local = 0
gpgpu_n_mem_read_global = 13571981
gpgpu_n_mem_write_global = 1169956
gpgpu_n_mem_texture = 0
gpgpu_n_mem_const = 0
gpgpu_n_load_insn  = 25712474
gpgpu_n_store_insn = 1748230
gpgpu_n_shmem_insn = 0
gpgpu_n_sstarr_insn = 0
gpgpu_n_tex_insn = 0
gpgpu_n_const_mem_insn = 0
gpgpu_n_param_mem_insn = 4582400
gpgpu_n_shmem_bkconflict = 0
gpgpu_n_cache_bkconflict = 0
gpgpu_n_intrawarp_mshr_merge = 0
gpgpu_n_cmem_portconflict = 0
gpgpu_stall_shd_mem[c_mem][resource_stall] = 0
gpgpu_stall_shd_mem[s_mem][bk_conf] = 0
gpgpu_stall_shd_mem[gl_mem][resource_stall] = 6440993
gpgpu_stall_shd_mem[gl_mem][coal_stall] = 698980
gpgpu_stall_shd_mem[gl_mem][data_port_stall] = 0
gpu_reg_bank_conflict_stalls = 0
Warp Occupancy Distribution:
Stall:669656	W0_Idle:113573989	W0_Scoreboard:505056811	W1:18131542	W2:3470944	W3:1720674	W4:1148234	W5:880732	W6:730480	W7:634674	W8:555966	W9:491828	W10:439406	W11:394705	W12:356299	W13:333793	W14:295075	W15:273762	W16:232042	W17:207421	W18:173743	W19:148433	W20:131238	W21:123932	W22:121356	W23:117822	W24:113929	W25:105969	W26:89624	W27:66944	W28:48025	W29:45716	W30:64193	W31:84738	W32:785101
single_issue_nums: WS0:8173984	WS1:7973040	WS2:8259567	WS3:8111749	
dual_issue_nums: WS0:0	WS1:0	WS2:0	WS3:0	
traffic_breakdown_coretomem[GLOBAL_ACC_R] = 108575848 {8:13571981,}
traffic_breakdown_coretomem[GLOBAL_ACC_W] = 46798240 {40:1169956,}
traffic_breakdown_memtocore[GLOBAL_ACC_R] = 542879240 {40:13571981,}
traffic_breakdown_memtocore[GLOBAL_ACC_W] = 9359648 {8:1169956,}
maxmflatency = 2949 
max_icnt2mem_latency = 1807 
maxmrqlatency = 1196 
max_icnt2sh_latency = 226 
averagemflatency = 301 
avg_icnt2mem_latency = 53 
avg_mrq_latency = 8 
avg_icnt2sh_latency = 3 
mrq_lat_table:4302658 	59864 	113391 	242332 	422420 	170156 	64495 	45695 	27531 	3021 	7 	0 	0 	0 	0 	0 	0 	0 	0 	0 	0 	0 	0 	0 	0 	0 	0 	0 	0 	0 	0 	0 	
dq_lat_table:0 	0 	0 	0 	0 	0 	0 	0 	0 	0 	0 	0 	0 	0 	0 	0 	0 	0 	0 	0 	0 	0 	0 	0 	0 	0 	0 	0 	0 	0 	0 	0 	
mf_lat_table:0 	0 	0 	0 	0 	0 	0 	8563289 	5798885 	315927 	63054 	782 	0 	0 	0 	0 	0 	0 	0 	0 	0 	0 	0 	0 	0 	0 	0 	0 	0 	0 	0 	0 	
icnt2mem_lat_table:0 	0 	0 	0 	0 	13508911 	697485 	184242 	251846 	96775 	2678 	0 	0 	0 	0 	0 	0 	0 	0 	0 	0 	0 	0 	0 	
icnt2sh_lat_table:0 	11710989 	1761156 	759361 	365291 	111797 	27830 	5513 	0 	0 	0 	0 	0 	0 	0 	0 	0 	0 	0 	0 	0 	0 	0 	0 	
mf_lat_pw_table:0 	0 	0 	0 	0 	0 	0 	403 	6734 	27 	3 	0 	0 	0 	0 	0 	0 	0 	0 	0 	0 	0 	0 	0 	0 	0 	0 	0 	0 	0 	0 	0 	
maximum concurrent accesses to same row:
dram[0]:        64        64        64        64        64        64        64        64        64        64        64        64        64        64        20        35 
dram[1]:        64        64        64        64        64        64        64        64        64        64        64        64        64        64        21        21 
dram[2]:        64        64        64        64        64        64        64        64        64        64        64        64        64        64        18        19 
dram[3]:        64        64        64        64        64        64        64        64        64        64        64        64        64        64        20        23 
dram[4]:        64        64        64        64        64        64        64        64        64        64        64        64        64        64        17        21 
dram[5]:        64        64        64        64        64        64        64        64        64        64        64        64        64        64        18        27 
dram[6]:        64        64        64        64        64        64        64        64        64        64        64        64        64        64        22        22 
dram[7]:        64        64        64        64        64        64        64        64        64        64        64        64        64        64        19        21 
dram[8]:        64        64        64        64        64        64        64        64        64        64        64        64        64        64        22        22 
dram[9]:        64        64        63        63        63        64        64        64        64        64        64        64        64        64        21        20 
dram[10]:        64        64        60        61        59        59        64        64        64        64        64        64        64        64        18        20 
dram[11]:        64        64        63        64        63        64        64        64        64        64        64        64        64        64        19        28 
maximum service time to same row:
dram[0]:    580444    224196    182435    199483    363345    191387    381777    269108    733104    297905    196797    706058    330844    246482    186688    324333 
dram[1]:    341177    320859    374707    531419    570462    241585    232102    308517    186434    229054    714168    263332    185918    225223    461906    255893 
dram[2]:    850457    272572    124145    322059    170002    248096    143318    266408    149431    259422    303513    268642    214867    252015    288188    202229 
dram[3]:    470282    362281    606312    285481    270071    202033    269674    187156    445891    271224    509422    657154    248811    372818    186715    255600 
dram[4]:    271040    231749    550780    182447    244296    122555    211344    163660    964178    209653    252751    197372    401253    316261    235764    301044 
dram[5]:    207301    286499    519662    180697    683415    269282    190633    192918    242974    560473    215721    307994    318546    375941    206991    242767 
dram[6]:    196060    411241    282945    293568    291330    514138    440749    302351    509648    262106    277194    422192    363758    456095    289551    539940 
dram[7]:    294929    173718    176822    585372    169718    218093    275435    375371    253294    344578    218310    347218    205021    231535    273516    694830 
dram[8]:    291283    181636    231728    184483    273333    302436    170143    209137    186644    367107    197186    210070    238631    227942    164748    207693 
dram[9]:    241313    393278    333394    463772    354883    672629    423122    562794    347868    439254    131916    288053    469724    204096    276363    143382 
dram[10]:    560192    172638    189947    308630    265370    235396    631722    687409    281308    186192    313149    249722    319414    459545    295118    275568 
dram[11]:    549321    279065    517595    432991    310648    227224    200126    191103    269937    382783    192648    210282    339987    467235    114753    223374 
average row accesses per activate:
dram[0]:  1.250196  1.257905  1.256956  1.264691  1.255968  1.260169  1.254979  1.270735  1.236997  1.238595  1.247509  1.243195  1.244137  1.257501  1.250967  1.261954 
dram[1]:  1.256177  1.260852  1.268499  1.265179  1.257657  1.266633  1.263644  1.267781  1.233548  1.241858  1.248437  1.245136  1.251456  1.251712  1.267261  1.256494 
dram[2]:  1.260542  1.263217  1.267547  1.268715  1.256389  1.253301  1.265857  1.262752  1.240796  1.244222  1.243178  1.246689  1.249409  1.246421  1.263766  1.265470 
dram[3]:  1.263608  1.258926  1.259879  1.258010  1.252329  1.257828  1.264751  1.260407  1.249446  1.247650  1.246459  1.249737  1.256452  1.252728  1.263697  1.261206 
dram[4]:  1.257925  1.256298  1.261005  1.269079  1.250704  1.253361  1.251852  1.261492  1.236095  1.243675  1.246603  1.254111  1.253878  1.255384  1.258302  1.276278 
dram[5]:  1.264138  1.264759  1.271729  1.264440  1.261592  1.253045  1.277146  1.263830  1.239838  1.233526  1.251105  1.243632  1.258786  1.255562  1.275603  1.272495 
dram[6]:  1.264159  1.254823  1.269497  1.266156  1.259959  1.259457  1.260825  1.263405  1.245744  1.243655  1.250045  1.238134  1.248049  1.252426  1.279277  1.270370 
dram[7]:  1.255286  1.265184  1.261384  1.264501  1.258043  1.251247  1.265831  1.260808  1.233601  1.249392  1.243277  1.245348  1.252283  1.248388  1.263076  1.265350 
dram[8]:  1.250763  1.258093  1.257082  1.253922  1.251346  1.260462  1.260030  1.260563  1.231194  1.247707  1.245694  1.251454  1.251170  1.242723  1.259701  1.270233 
dram[9]:  1.262205  1.262946  1.266944  1.272136  1.253719  1.261877  1.254168  1.258954  1.237600  1.245969  1.248192  1.258364  1.250609  1.255301  1.265829  1.267994 
dram[10]:  1.262563  1.262048  1.274179  1.263227  1.250577  1.259934  1.256270  1.262715  1.238682  1.239016  1.252658  1.250923  1.255278  1.247957  1.261506  1.270940 
dram[11]:  1.268741  1.260082  1.271043  1.269385  1.258362  1.259243  1.266864  1.266422  1.246849  1.244802  1.241622  1.252869  1.253794  1.251982  1.262274  1.270382 
average row locality = 5451570/4340160 = 1.256076
number of total memory accesses made:
dram[0]:         0         0         0         0         0         0         0         0         0         0         0         0         0         0         0         0 
dram[1]:         0         0         0         0         0         0         0         0         0         0         0         0         0         0         0         0 
dram[2]:         0         0         0         0         0         0         0         0         0         0         0         0         0         0         0         0 
dram[3]:         0         0         0         0         0         0         0         0         0         0         0         0         0         0         0         0 
dram[4]:         0         0         0         0         0         0         0         0         0         0         0         0         0         0         0         0 
dram[5]:         0         0         0         0         0         0         0         0         0         0         0         0         0         0         0         0 
dram[6]:         0         0         0         0         0         0         0         0         0         0         0         0         0         0         0         0 
dram[7]:         0         0         0         0         0         0         0         0         0         0         0         0         0         0         0         0 
dram[8]:         0         0         0         0         0         0         0         0         0         0         0         0         0         0         0         0 
dram[9]:         0         0         0         0         0         0         0         0         0         0         0         0         0         0         0         0 
dram[10]:         0         0         0         0         0         0         0         0         0         0         0         0         0         0         0         0 
dram[11]:         0         0         0         0         0         0         0         0         0         0         0         0         0         0         0         0 
total accesses: 0
min_bank_accesses = 0!
min_chip_accesses = 0!
number of total read accesses:
dram[0]:     26717     26588     25678     25738     26912     27092     25662     25441     27808     28177     26659     27330     27110     26704     25927     25596 
dram[1]:     27095     26370     25265     26280     26553     26049     25374     25056     27786     28030     25942     27191     27140     26633     24878     25787 
dram[2]:     26068     26274     25504     25329     27221     26584     26183     25553     27914     27597     27130     26743     27478     27230     25520     25904 
dram[3]:     26294     26800     25505     25825     26133     26624     25814     26152     27284     27580     26685     26543     26532     26948     25638     25371 
dram[4]:     26219     26476     25217     25432     26468     26576     25881     25085     27634     27349     26818     26284     26759     27095     25557     24735 
dram[5]:     26412     26040     25280     25603     27561     27238     26124     25626     27417     27823     26295     27133     27257     27362     25677     25499 
dram[6]:     26074     26824     25161     25743     26657     25814     26040     26203     27328     27836     26044     27156     26928     27072     25005     25250 
dram[7]:     27002     26111     25560     25547     26702     27607     25809     25837     28558     27226     27540     26776     27983     27644     25642     25162 
dram[8]:     26702     26906     25698     26865     26814     26820     25430     25918     27885     27844     26696     27110     26561     27844     25292     25796 
dram[9]:     26971     26582     24963     24771     27018     26406     26069     25748     28265     27824     27099     25684     27157     26949     25376     25006 
dram[10]:     26847     26476     25506     25944     26165     26504     26037     25835     28154     27605     27087     26489     27046     26846     25399     25210 
dram[11]:     26094     26869     24821     25015     26921     26023     25091     25418     26944     27232     26456     26532     26819     26881     25403     25314 
total dram reads = 5073353
bank skew: 28558/24735 = 1.15
chip skew: 426706/417833 = 1.02
number of total write accesses:
dram[0]:      3088      3052      3098      3043      3138      3067      3123      3116      3207      3218      3276      3373      3318      3346      3136      3124 
dram[1]:      3109      3059      3029      3022      3124      3040      3140      3068      3322      3297      3269      3254      3329      3260      3073      3182 
dram[2]:      3077      3089      3021      2997      3139      3183      3173      3141      3240      3228      3279      3338      3325      3280      3057      3101 
dram[3]:      3079      3085      3025      3033      3148      3141      3137      3134      3192      3178      3329      3273      3327      3364      3049      2995 
dram[4]:      3055      3095      2967      3029      3121      3135      3193      3154      3228      3237      3384      3283      3328      3185      3070      3054 
dram[5]:      3065      3007      2998      3103      3170      3158      3124      3157      3248      3235      3275      3345      3355      3314      3032      3111 
dram[6]:      3028      3075      2961      3075      3058      3099      3171      3218      3185      3259      3247      3319      3227      3309      3076      3060 
dram[7]:      3092      3042      3006      3040      3124      3133      3143      3117      3287      3226      3343      3365      3446      3374      3066      2999 
dram[8]:      3131      3076      3078      3080      3133      3098      3114      3143      3225      3253      3361      3255      3265      3316      3092      3099 
dram[9]:      3095      3076      2977      2996      3158      3153      3184      3068      3281      3245      3370      3321      3382      3252      3080      3036 
dram[10]:      3097      3094      3017      3050      3158      3117      3122      3105      3238      3266      3306      3258      3286      3367      3043      3020 
dram[11]:      3076      3058      2982      2991      3185      3156      3079      3103      3211      3197      3338      3319      3258      3285      3038      3125 
total dram writes = 607180
bank skew: 3446/2961 = 1.16
chip skew: 50803/50367 = 1.01
average mf latency per bank:
dram[0]:        690       725       700       726       681       677       677       699       651       672       873       801       889      1005       770       774
dram[1]:        706       747       716       698       670       734       674       763       701       702       884       920       915       954       818       744
dram[2]:        758       713       733       729       704       677       674       696       643       657       850       794       946       964       806       775
dram[3]:        776       721       716       701       677       684       692       682       724       696       841       867       931       853       822       777
dram[4]:        732       743       807       702       722       683       680       684       671       710       838       831       990       984      4027       838
dram[5]:        743       750       771       703       689       681       723       652       702       636       937       809       986       973       840       788
dram[6]:        737       747       774       739       738       699       667       674       709       718       891       851      1007       902       838       804
dram[7]:        722       772       777       722       744       683       711       666       653       687       846       778       880       933       781       832
dram[8]:        691       688       720       687       646       709       703       690       686       652       835       928       977       919       821       784
dram[9]:        717       735       804       710       685       655       654       732       646       698       818       869       964       950       812       816
dram[10]:        707       701       783       690       670       679       712       682       680       662       889       931       917       876       806       860
dram[11]:        735       679       758       733       664       670       735       738       716       731       796       823      1028       910       788       791
maximum mf latency per bank:
dram[0]:       1750      1698      1693      1714      1755      2313      1630      2059      1726      1881      1619      1726      1625      2011      1697      1606
dram[1]:       1579      1792      1693      1888      1643      1634      1700      1755      1669      1644      1418      1652      1622      1863      1470      1712
dram[2]:       1947      1930      2070      1796      2038      1919      2167      2144      2161      1820      1931      1804      2228      1761      2407      1782
dram[3]:       2222      1932      1838      1912      1879      1868      2159      1817      1791      1579      2043      2030      1906      1884      1946      1845
dram[4]:       2002      1738      2074      2023      1916      1946      1858      1841      1768      1928      1975      1941      1934      1775      2045      1907
dram[5]:       2692      2095      2707      1789      2793      1828      2771      1924      2638      1955      2910      1822      2627      2285      2949      2015
dram[6]:       1952      1956      2263      1882      1933      2131      1774      1963      1665      2002      2114      2111      2188      2024      2182      2021
dram[7]:       1723      1739      1967      1700      1778      1867      1959      1695      1948      1718      1756      1813      2083      1816      1922      1709
dram[8]:       1881      2091      1773      2120      1615      2013      1598      2125      1849      2150      1633      2035      1974      2225      1729      2153
dram[9]:       2126      1923      1743      1634      1634      1872      1814      1637      1806      1665      2119      1862      1887      1782      1757      1802
dram[10]:       1736      1657      1938      1708      1809      1753      1985      1771      1985      1717      2105      1552      2095      1750      1893      1715
dram[11]:       1927      2050      1906      1896      1993      1827      2062      2010      1761      1855      1762      1950      2016      1839      1913      2015

Number of Memory Banks Accessed per Memory Operation per Warp (from 0):
0	0	0	0	0	0	0	0	0	0	0	0	0	0	0	0	0	0	0	0	0	0	0	0	0	0	0	0	0	0	0	0	0	0	0	0	0	0	0	0	0	0	0	0	0	0	0	0	0	0	0	0	0	0	0	0	0	0	0	0	0	0	0	0	0	0	0	0	0	0	0	0	0	0	0	0	0	0	0	0	0	0	0	0	0	0	0	0	0	0	0	0	0	0	0	0	0	0	0	0	0	0	0	0	0	0	0	0	0	0	0	0	0	0	0	0	0	0	0	0	0	0	0	0	0	0	0	0	0	0	0	0	0	0	0	0	0	0	0	0	0	0	0	0	0	0	0	0	0	0	0	0	0	0	0	0	0	0	0	0	0	0	0	0	0	0	0	0	0	0	0	0	0	0	0	0	0	0	0	0	0	0	0	0	0	0	0	0	0	0	0	0	
Average # of Memory Banks Accessed per Memory Operation per Warp=-nan

position of mrq chosen
0	0	0	0	0	0	0	0	0	0	0	0	0	0	0	0	0	0	0	0	0	0	0	0	0	0	0	0	0	0	0	0	0	0	0	0	0	0	0	0	0	0	0	0	0	0	0	0	0	0	0	0	0	0	0	0	0	0	0	0	0	0	0	0	

average position of mrq chosen = -nan
Memory Partition 0: 
Cache L2_bank_000:
MSHR contents

Cache L2_bank_001:
MSHR contents

In Dram Latency Queue (total = 0): 
DRAM[0]: 16 bks, busW=2 BL=16 CL=24, tRRD=12 tCCD=4, tRCD=24 tRAS=55 tRP=24 tRC=78
n_cmd=18394328 n_nop=17217545 n_act=364505 n_pre=364489 n_ref_event=0 n_req=456712 n_rd=425139 n_rd_L2_A=0 n_write=0 n_wr_bk=50723 bw_util=0.1035
n_activity=11472650 dram_eff=0.1659
bk0: 26717a 16921317i bk1: 26588a 16936851i bk2: 25678a 16974667i bk3: 25738a 16983869i bk4: 26912a 16918251i bk5: 27092a 16910656i bk6: 25662a 16970171i bk7: 25441a 17001888i bk8: 27808a 16849710i bk9: 28177a 16826203i bk10: 26659a 16909929i bk11: 27330a 16865218i bk12: 27110a 16874715i bk13: 26704a 16917288i bk14: 25927a 16953331i bk15: 25596a 16985868i 

------------------------------------------------------------------------

Row_Buffer_Locality = 0.201911
Row_Buffer_Locality_read = 0.210444
Row_Buffer_Locality_write = 0.087005
Bank_Level_Parallism = 2.459455
Bank_Level_Parallism_Col = 1.529374
Bank_Level_Parallism_Ready = 1.111276
write_to_read_ratio_blp_rw_average = 0.091218
GrpLevelPara = 1.380666 

BW Util details:
bwutil = 0.103480 
total_CMD = 18394328 
util_bw = 1903448 
Wasted_Col = 5525742 
Wasted_Row = 2391506 
Idle = 8573632 

BW Util Bottlenecks: 
RCDc_limit = 6626485 
RCDWRc_limit = 294546 
WTRc_limit = 814912 
RTWc_limit = 664026 
CCDLc_limit = 276016 
rwq = 0 
CCDLc_limit_alone = 217109 
WTRc_limit_alone = 785449 
RTWc_limit_alone = 634582 

Commands details: 
total_CMD = 18394328 
n_nop = 17217545 
Read = 425139 
Write = 0 
L2_Alloc = 0 
L2_WB = 50723 
n_act = 364505 
n_pre = 364489 
n_ref = 0 
n_req = 456712 
total_req = 475862 

Dual Bus Interface Util: 
issued_total_row = 728994 
issued_total_col = 475862 
Row_Bus_Util =  0.039631 
CoL_Bus_Util = 0.025870 
Either_Row_CoL_Bus_Util = 0.063975 
Issued_on_Two_Bus_Simul_Util = 0.001526 
issued_two_Eff = 0.023856 
queue_avg = 0.518212 


dram_util_bins: 0 0 0 0 0 0 0 0 0 0
dram_eff_bins: 0 0 0 0 0 0 0 0 0 0
mrqq: max=64 avg=0.518212
Memory Partition 1: 
Cache L2_bank_002:
MSHR contents

Cache L2_bank_003:
MSHR contents

In Dram Latency Queue (total = 0): 
DRAM[1]: 16 bks, busW=2 BL=16 CL=24, tRRD=12 tCCD=4, tRCD=24 tRAS=55 tRP=24 tRC=78
n_cmd=18394328 n_nop=17228748 n_act=360627 n_pre=360611 n_ref_event=0 n_req=452942 n_rd=421429 n_rd_L2_A=0 n_write=0 n_wr_bk=50577 bw_util=0.1026
n_activity=11456275 dram_eff=0.1648
bk0: 27095a 16909773i bk1: 26370a 16952182i bk2: 25265a 17023562i bk3: 26280a 16965067i bk4: 26553a 16929229i bk5: 26049a 16977570i bk6: 25374a 17003545i bk7: 25056a 17030439i bk8: 27786a 16842706i bk9: 28030a 16834590i bk10: 25942a 16954667i bk11: 27191a 16890238i bk12: 27140a 16884399i bk13: 26633a 16914050i bk14: 24878a 17031902i bk15: 25787a 16969422i 

------------------------------------------------------------------------

Row_Buffer_Locality = 0.203830
Row_Buffer_Locality_read = 0.212897
Row_Buffer_Locality_write = 0.082569
Bank_Level_Parallism = 2.437670
Bank_Level_Parallism_Col = 1.000000
Bank_Level_Parallism_Ready = 1.109775
write_to_read_ratio_blp_rw_average = 0.000000
GrpLevelPara = 0.000000 

BW Util details:
bwutil = 0.102642 
total_CMD = 18394328 
util_bw = 1888024 
Wasted_Col = 5487969 
Wasted_Row = 2401999 
Idle = 8616336 

BW Util Bottlenecks: 
RCDc_limit = 6558999 
RCDWRc_limit = 295522 
WTRc_limit = 797170 
RTWc_limit = 661826 
CCDLc_limit = 271659 
rwq = 0 
CCDLc_limit_alone = 213644 
WTRc_limit_alone = 768997 
RTWc_limit_alone = 631984 

Commands details: 
total_CMD = 18394328 
n_nop = 17228748 
Read = 421429 
Write = 0 
L2_Alloc = 0 
L2_WB = 50577 
n_act = 360627 
n_pre = 360611 
n_ref = 0 
n_req = 452942 
total_req = 472006 

Dual Bus Interface Util: 
issued_total_row = 721238 
issued_total_col = 472006 
Row_Bus_Util =  0.039210 
CoL_Bus_Util = 0.025660 
Either_Row_CoL_Bus_Util = 0.063366 
Issued_on_Two_Bus_Simul_Util = 0.001504 
issued_two_Eff = 0.023734 
queue_avg = 0.500123 


dram_util_bins: 0 0 0 0 0 0 0 0 0 0
dram_eff_bins: 0 0 0 0 0 0 0 0 0 0
mrqq: max=64 avg=0.500123
Memory Partition 2: 
Cache L2_bank_004:
MSHR contents

Cache L2_bank_005:
MSHR contents

In Dram Latency Queue (total = 0): 
DRAM[2]: 16 bks, busW=2 BL=16 CL=24, tRRD=12 tCCD=4, tRCD=24 tRAS=55 tRP=24 tRC=78
n_cmd=18394328 n_nop=17222288 n_act=362876 n_pre=362860 n_ref_event=0 n_req=455690 n_rd=424232 n_rd_L2_A=0 n_write=0 n_wr_bk=50668 bw_util=0.1033
n_activity=11438132 dram_eff=0.1661
bk0: 26068a 16962693i bk1: 26274a 16954660i bk2: 25504a 17001095i bk3: 25329a 17018918i bk4: 27221a 16898516i bk5: 26584a 16923409i bk6: 26183a 16956255i bk7: 25553a 16992132i bk8: 27914a 16837548i bk9: 27597a 16862791i bk10: 27130a 16882850i bk11: 26743a 16906221i bk12: 27478a 16859458i bk13: 27230a 16881016i bk14: 25520a 16988484i bk15: 25904a 16971981i 

------------------------------------------------------------------------

Row_Buffer_Locality = 0.203695
Row_Buffer_Locality_read = 0.212601
Row_Buffer_Locality_write = 0.083604
Bank_Level_Parallism = 2.461288
Bank_Level_Parallism_Col = 1.530950
Bank_Level_Parallism_Ready = 1.111821
write_to_read_ratio_blp_rw_average = 0.091838
GrpLevelPara = 1.380716 

BW Util details:
bwutil = 0.103271 
total_CMD = 18394328 
util_bw = 1899600 
Wasted_Col = 5497106 
Wasted_Row = 2377218 
Idle = 8620404 

BW Util Bottlenecks: 
RCDc_limit = 6594506 
RCDWRc_limit = 292537 
WTRc_limit = 801033 
RTWc_limit = 663707 
CCDLc_limit = 274207 
rwq = 0 
CCDLc_limit_alone = 215625 
WTRc_limit_alone = 771987 
RTWc_limit_alone = 634171 

Commands details: 
total_CMD = 18394328 
n_nop = 17222288 
Read = 424232 
Write = 0 
L2_Alloc = 0 
L2_WB = 50668 
n_act = 362876 
n_pre = 362860 
n_ref = 0 
n_req = 455690 
total_req = 474900 

Dual Bus Interface Util: 
issued_total_row = 725736 
issued_total_col = 474900 
Row_Bus_Util =  0.039454 
CoL_Bus_Util = 0.025818 
Either_Row_CoL_Bus_Util = 0.063717 
Issued_on_Two_Bus_Simul_Util = 0.001555 
issued_two_Eff = 0.024398 
queue_avg = 0.519179 


dram_util_bins: 0 0 0 0 0 0 0 0 0 0
dram_eff_bins: 0 0 0 0 0 0 0 0 0 0
mrqq: max=64 avg=0.519179
Memory Partition 3: 
Cache L2_bank_006:
MSHR contents

Cache L2_bank_007:
MSHR contents

In Dram Latency Queue (total = 0): 
DRAM[3]: 16 bks, busW=2 BL=16 CL=24, tRRD=12 tCCD=4, tRCD=24 tRAS=55 tRP=24 tRC=78
n_cmd=18394328 n_nop=17228334 n_act=360701 n_pre=360685 n_ref_event=0 n_req=453145 n_rd=421728 n_rd_L2_A=0 n_write=0 n_wr_bk=50489 bw_util=0.1027
n_activity=11448109 dram_eff=0.165
bk0: 26294a 16956941i bk1: 26800a 16932247i bk2: 25505a 16995468i bk3: 25825a 16981986i bk4: 26133a 16950370i bk5: 26624a 16930331i bk6: 25814a 16976609i bk7: 26152a 16966445i bk8: 27284a 16891341i bk9: 27580a 16872894i bk10: 26685a 16908094i bk11: 26543a 16916699i bk12: 26532a 16917955i bk13: 26948a 16899735i bk14: 25638a 16984558i bk15: 25371a 17009253i 

------------------------------------------------------------------------

Row_Buffer_Locality = 0.204023
Row_Buffer_Locality_read = 0.213230
Row_Buffer_Locality_write = 0.080434
Bank_Level_Parallism = 2.442581
Bank_Level_Parallism_Col = 1.527006
Bank_Level_Parallism_Ready = 1.114120
write_to_read_ratio_blp_rw_average = 0.091806
GrpLevelPara = 1.378112 

BW Util details:
bwutil = 0.102688 
total_CMD = 18394328 
util_bw = 1888868 
Wasted_Col = 5486151 
Wasted_Row = 2392637 
Idle = 8626672 

BW Util Bottlenecks: 
RCDc_limit = 6562007 
RCDWRc_limit = 294598 
WTRc_limit = 804663 
RTWc_limit = 657818 
CCDLc_limit = 271356 
rwq = 0 
CCDLc_limit_alone = 212907 
WTRc_limit_alone = 775523 
RTWc_limit_alone = 628509 

Commands details: 
total_CMD = 18394328 
n_nop = 17228334 
Read = 421728 
Write = 0 
L2_Alloc = 0 
L2_WB = 50489 
n_act = 360701 
n_pre = 360685 
n_ref = 0 
n_req = 453145 
total_req = 472217 

Dual Bus Interface Util: 
issued_total_row = 721386 
issued_total_col = 472217 
Row_Bus_Util =  0.039218 
CoL_Bus_Util = 0.025672 
Either_Row_CoL_Bus_Util = 0.063389 
Issued_on_Two_Bus_Simul_Util = 0.001501 
issued_two_Eff = 0.023679 
queue_avg = 0.503545 


dram_util_bins: 0 0 0 0 0 0 0 0 0 0
dram_eff_bins: 0 0 0 0 0 0 0 0 0 0
mrqq: max=64 avg=0.503545
Memory Partition 4: 
Cache L2_bank_008:
MSHR contents

Cache L2_bank_009:
MSHR contents

In Dram Latency Queue (total = 0): 
DRAM[4]: 16 bks, busW=2 BL=16 CL=24, tRRD=12 tCCD=4, tRCD=24 tRAS=55 tRP=24 tRC=78
n_cmd=18394328 n_nop=17232755 n_act=359381 n_pre=359365 n_ref_event=0 n_req=451035 n_rd=419585 n_rd_L2_A=0 n_write=0 n_wr_bk=50518 bw_util=0.1022
n_activity=11424404 dram_eff=0.1646
bk0: 26219a 16957521i bk1: 26476a 16937643i bk2: 25217a 17012702i bk3: 25432a 17013730i bk4: 26468a 16937720i bk5: 26576a 16938235i bk6: 25881a 16963214i bk7: 25085a 17011830i bk8: 27634a 16861912i bk9: 27349a 16878183i bk10: 26818a 16896201i bk11: 26284a 16941444i bk12: 26759a 16903117i bk13: 27095a 16903746i bk14: 25557a 16982449i bk15: 24735a 17046116i 

------------------------------------------------------------------------

Row_Buffer_Locality = 0.203226
Row_Buffer_Locality_read = 0.212200
Row_Buffer_Locality_write = 0.083498
Bank_Level_Parallism = 2.437071
Bank_Level_Parallism_Col = 1.522586
Bank_Level_Parallism_Ready = 1.109626
write_to_read_ratio_blp_rw_average = 0.092404
GrpLevelPara = 1.374765 

BW Util details:
bwutil = 0.102228 
total_CMD = 18394328 
util_bw = 1880412 
Wasted_Col = 5477256 
Wasted_Row = 2392824 
Idle = 8643836 

BW Util Bottlenecks: 
RCDc_limit = 6540972 
RCDWRc_limit = 295466 
WTRc_limit = 799095 
RTWc_limit = 656878 
CCDLc_limit = 269753 
rwq = 0 
CCDLc_limit_alone = 211467 
WTRc_limit_alone = 770146 
RTWc_limit_alone = 627541 

Commands details: 
total_CMD = 18394328 
n_nop = 17232755 
Read = 419585 
Write = 0 
L2_Alloc = 0 
L2_WB = 50518 
n_act = 359381 
n_pre = 359365 
n_ref = 0 
n_req = 451035 
total_req = 470103 

Dual Bus Interface Util: 
issued_total_row = 718746 
issued_total_col = 470103 
Row_Bus_Util =  0.039074 
CoL_Bus_Util = 0.025557 
Either_Row_CoL_Bus_Util = 0.063148 
Issued_on_Two_Bus_Simul_Util = 0.001483 
issued_two_Eff = 0.023482 
queue_avg = 0.514991 


dram_util_bins: 0 0 0 0 0 0 0 0 0 0
dram_eff_bins: 0 0 0 0 0 0 0 0 0 0
mrqq: max=64 avg=0.514991
Memory Partition 5: 
Cache L2_bank_010:
MSHR contents

Cache L2_bank_011:
MSHR contents

In Dram Latency Queue (total = 0): 
DRAM[5]: 16 bks, busW=2 BL=16 CL=24, tRRD=12 tCCD=4, tRCD=24 tRAS=55 tRP=24 tRC=78
n_cmd=18394328 n_nop=17222968 n_act=362170 n_pre=362154 n_ref_event=0 n_req=455972 n_rd=424347 n_rd_L2_A=0 n_write=0 n_wr_bk=50697 bw_util=0.1033
n_activity=11444160 dram_eff=0.166
bk0: 26412a 16949097i bk1: 26040a 16980250i bk2: 25280a 17016234i bk3: 25603a 16995399i bk4: 27561a 16885680i bk5: 27238a 16893391i bk6: 26124a 16967302i bk7: 25626a 16986315i bk8: 27417a 16868550i bk9: 27823a 16841414i bk10: 26295a 16920942i bk11: 27133a 16880286i bk12: 27257a 16878452i bk13: 27362a 16874313i bk14: 25677a 16983719i bk15: 25499a 16994872i 

------------------------------------------------------------------------

Row_Buffer_Locality = 0.205736
Row_Buffer_Locality_read = 0.214579
Row_Buffer_Locality_write = 0.087083
Bank_Level_Parallism = 2.457909
Bank_Level_Parallism_Col = 1.537089
Bank_Level_Parallism_Ready = 1.118671
write_to_read_ratio_blp_rw_average = 0.092755
GrpLevelPara = 1.381828 

BW Util details:
bwutil = 0.103302 
total_CMD = 18394328 
util_bw = 1900176 
Wasted_Col = 5497352 
Wasted_Row = 2381642 
Idle = 8615158 

BW Util Bottlenecks: 
RCDc_limit = 6580803 
RCDWRc_limit = 293809 
WTRc_limit = 811836 
RTWc_limit = 674246 
CCDLc_limit = 275311 
rwq = 0 
CCDLc_limit_alone = 215387 
WTRc_limit_alone = 782614 
RTWc_limit_alone = 643544 

Commands details: 
total_CMD = 18394328 
n_nop = 17222968 
Read = 424347 
Write = 0 
L2_Alloc = 0 
L2_WB = 50697 
n_act = 362170 
n_pre = 362154 
n_ref = 0 
n_req = 455972 
total_req = 475044 

Dual Bus Interface Util: 
issued_total_row = 724324 
issued_total_col = 475044 
Row_Bus_Util =  0.039378 
CoL_Bus_Util = 0.025826 
Either_Row_CoL_Bus_Util = 0.063680 
Issued_on_Two_Bus_Simul_Util = 0.001523 
issued_two_Eff = 0.023911 
queue_avg = 0.579712 


dram_util_bins: 0 0 0 0 0 0 0 0 0 0
dram_eff_bins: 0 0 0 0 0 0 0 0 0 0
mrqq: max=64 avg=0.579712
Memory Partition 6: 
Cache L2_bank_012:
MSHR contents

Cache L2_bank_013:
MSHR contents

In Dram Latency Queue (total = 0): 
DRAM[6]: 16 bks, busW=2 BL=16 CL=24, tRRD=12 tCCD=4, tRCD=24 tRAS=55 tRP=24 tRC=78
n_cmd=18394328 n_nop=17230827 n_act=359895 n_pre=359879 n_ref_event=0 n_req=452553 n_rd=421135 n_rd_L2_A=0 n_write=0 n_wr_bk=50367 bw_util=0.1025
n_activity=11442400 dram_eff=0.1648
[...]
Wasted_Row = 11064180 
Idle = 36299858 

BW Util Bottlenecks: 
RCDc_limit = 37376705 
RCDWRc_limit = 311902 
WTRc_limit = 983868 
RTWc_limit = 885358 
CCDLc_limit = 1414830 
rwq = 0 
CCDLc_limit_alone = 1330356 
WTRc_limit_alone = 943834 
RTWc_limit_alone = 840918 

Commands details: 
total_CMD = 85863699 
n_nop = 79533272 
Read = 2512948 
Write = 0 
L2_Alloc = 0 
L2_WB = 78343 
n_act = 1968857 
n_pre = 1968841 
n_ref = 0 
n_req = 2552184 
total_req = 2591291 

Dual Bus Interface Util: 
issued_total_row = 3937698 
issued_total_col = 2591291 
Row_Bus_Util =  0.045860 
CoL_Bus_Util = 0.030179 
Either_Row_CoL_Bus_Util = 0.073726 
Issued_on_Two_Bus_Simul_Util = 0.002313 
issued_two_Eff = 0.031366 
queue_avg = 0.677021 


dram_util_bins: 0 0 0 0 0 0 0 0 0 0
dram_eff_bins: 0 0 0 0 0 0 0 0 0 0
mrqq: max=64 avg=0.677021
Memory Partition 7: 
Cache L2_bank_014:
MSHR contents

Cache L2_bank_015:
MSHR contents

In Dram Latency Queue (total = 0): 
DRAM[7]: 16 bks, busW=2 BL=16 CL=24, tRRD=12 tCCD=4, tRCD=24 tRAS=55 tRP=24 tRC=78
n_cmd=85863699 n_nop=79465975 n_act=1993032 n_pre=1993016 n_ref_event=0 n_req=2577520 n_rd=2537864 n_rd_L2_A=0 n_write=0 n_wr_bk=78747 bw_util=0.1219
n_activity=56420467 dram_eff=0.1855
bk0: 160581a 77885855i bk1: 156336a 78158578i bk2: 150787a 78390720i bk3: 151168a 78404380i bk4: 157714a 78018425i bk5: 163039a 77746254i bk6: 149343a 78510010i bk7: 152019a 78379339i bk8: 166361a 77490860i bk9: 159035a 77941998i bk10: 166593a 77456874i bk11: 160680a 77767687i bk12: 170462a 77241807i bk13: 169930a 77225345i bk14: 152237a 78289704i bk15: 151579a 78380868i 

------------------------------------------------------------------------

Row_Buffer_Locality = 0.226767
Row_Buffer_Locality_read = 0.228110
Row_Buffer_Locality_write = 0.140836
Bank_Level_Parallism = 2.606853
Bank_Level_Parallism_Col = 1.502215
Bank_Level_Parallism_Ready = 1.085459
write_to_read_ratio_blp_rw_average = 0.022515
GrpLevelPara = 1.367263 

BW Util details:
bwutil = 0.121896 
total_CMD = 85863699 
util_bw = 10466444 
Wasted_Col = 28330818 
Wasted_Row = 11001693 
Idle = 36064744 

BW Util Bottlenecks: 
RCDc_limit = 37767928 
RCDWRc_limit = 315859 
WTRc_limit = 1011934 
RTWc_limit = 915447 
CCDLc_limit = 1439902 
rwq = 0 
CCDLc_limit_alone = 1352758 
WTRc_limit_alone = 970517 
RTWc_limit_alone = 869720 

Commands details: 
total_CMD = 85863699 
n_nop = 79465975 
Read = 2537864 
Write = 0 
L2_Alloc = 0 
L2_WB = 78747 
n_act = 1993032 
n_pre = 1993016 
n_ref = 0 
n_req = 2577520 
total_req = 2616611 

Dual Bus Interface Util: 
issued_total_row = 3986048 
issued_total_col = 2616611 
Row_Bus_Util =  0.046423 
CoL_Bus_Util = 0.030474 
Either_Row_CoL_Bus_Util = 0.074510 
Issued_on_Two_Bus_Simul_Util = 0.002387 
issued_two_Eff = 0.032032 
queue_avg = 0.670745 


dram_util_bins: 0 0 0 0 0 0 0 0 0 0
dram_eff_bins: 0 0 0 0 0 0 0 0 0 0
mrqq: max=64 avg=0.670745
Memory Partition 8: 
Cache L2_bank_016:
MSHR contents

Cache L2_bank_017:
MSHR contents

In Dram Latency Queue (total = 0): 
DRAM[8]: 16 bks, busW=2 BL=16 CL=24, tRRD=12 tCCD=4, tRCD=24 tRAS=55 tRP=24 tRC=78
n_cmd=85863699 n_nop=79468269 n_act=1993140 n_pre=1993124 n_ref_event=0 n_req=2572965 n_rd=2533499 n_rd_L2_A=0 n_write=0 n_wr_bk=78701 bw_util=0.1217
n_activity=56400119 dram_eff=0.1853
bk0: 159368a 77910728i bk1: 158004a 78049685i bk2: 152253a 78295446i bk3: 157035a 78067166i bk4: 158142a 77977724i bk5: 157007a 78060982i bk6: 148900a 78511071i bk7: 150956a 78477614i bk8: 162973a 77691806i bk9: 161214a 77838445i bk10: 162917a 77650100i bk11: 164348a 77641079i bk12: 164454a 77549772i bk13: 169882a 77279647i bk14: 152331a 78254012i bk15: 153715a 78282953i 

------------------------------------------------------------------------

Row_Buffer_Locality = 0.225356
Row_Buffer_Locality_read = 0.226604
Row_Buffer_Locality_write = 0.145214
Bank_Level_Parallism = 2.601706
Bank_Level_Parallism_Col = 1.500566
Bank_Level_Parallism_Ready = 1.084352
write_to_read_ratio_blp_rw_average = 0.022224
GrpLevelPara = 1.366246 

BW Util details:
bwutil = 0.121691 
total_CMD = 85863699 
util_bw = 10448800 
Wasted_Col = 28358855 
Wasted_Row = 10986720 
Idle = 36069324 

BW Util Bottlenecks: 
RCDc_limit = 37786845 
RCDWRc_limit = 313985 
WTRc_limit = 1012921 
RTWc_limit = 900157 
CCDLc_limit = 1438090 
rwq = 0 
CCDLc_limit_alone = 1351124 
WTRc_limit_alone = 970487 
RTWc_limit_alone = 855625 

Commands details: 
total_CMD = 85863699 
n_nop = 79468269 
Read = 2533499 
Write = 0 
L2_Alloc = 0 
L2_WB = 78701 
n_act = 1993140 
n_pre = 1993124 
n_ref = 0 
n_req = 2572965 
total_req = 2612200 

Dual Bus Interface Util: 
issued_total_row = 3986264 
issued_total_col = 2612200 
Row_Bus_Util =  0.046425 
CoL_Bus_Util = 0.030423 
Either_Row_CoL_Bus_Util = 0.074484 
Issued_on_Two_Bus_Simul_Util = 0.002365 
issued_two_Eff = 0.031747 
queue_avg = 0.653481 


dram_util_bins: 0 0 0 0 0 0 0 0 0 0
dram_eff_bins: 0 0 0 0 0 0 0 0 0 0
mrqq: max=64 avg=0.653481
Memory Partition 9: 
Cache L2_bank_018:
MSHR contents

Cache L2_bank_019:
MSHR contents

In Dram Latency Queue (total = 0): 
DRAM[9]: 16 bks, busW=2 BL=16 CL=24, tRRD=12 tCCD=4, tRCD=24 tRAS=55 tRP=24 tRC=78
n_cmd=85863699 n_nop=79528349 n_act=1970582 n_pre=1970566 n_ref_event=0 n_req=2552206 n_rd=2512763 n_rd_L2_A=0 n_write=0 n_wr_bk=78675 bw_util=0.1207
n_activity=56373947 dram_eff=0.1839
bk0: 159746a 77936792i bk1: 157498a 78064828i bk2: 147526a 78586818i bk3: 147303a 78647733i bk4: 158556a 78005632i bk5: 155826a 78189711i bk6: 152527a 78330469i bk7: 150113a 78504003i bk8: 164650a 77668402i bk9: 162157a 77777454i bk10: 164110a 77583949i bk11: 157557a 78011071i bk12: 167969a 77355255i bk13: 166822a 77462705i bk14: 150568a 78384026i bk15: 149835a 78484496i 

------------------------------------------------------------------------

Row_Buffer_Locality = 0.227894
Row_Buffer_Locality_read = 0.229237
Row_Buffer_Locality_write = 0.142332
Bank_Level_Parallism = 2.581756
Bank_Level_Parallism_Col = 1.498188
Bank_Level_Parallism_Ready = 1.087461
write_to_read_ratio_blp_rw_average = 0.022606
GrpLevelPara = 1.363928 

BW Util details:
bwutil = 0.120723 
total_CMD = 85863699 
util_bw = 10365752 
Wasted_Col = 28173802 
Wasted_Row = 11081994 
Idle = 36242151 

BW Util Bottlenecks: 
RCDc_limit = 37411079 
RCDWRc_limit = 313958 
WTRc_limit = 998205 
RTWc_limit = 899871 
CCDLc_limit = 1413817 
rwq = 0 
CCDLc_limit_alone = 1328166 
WTRc_limit_alone = 957112 
RTWc_limit_alone = 855313 

Commands details: 
total_CMD = 85863699 
n_nop = 79528349 
Read = 2512763 
Write = 0 
L2_Alloc = 0 
L2_WB = 78675 
n_act = 1970582 
n_pre = 1970566 
n_ref = 0 
n_req = 2552206 
total_req = 2591438 

Dual Bus Interface Util: 
issued_total_row = 3941148 
issued_total_col = 2591438 
Row_Bus_Util =  0.045900 
CoL_Bus_Util = 0.030181 
Either_Row_CoL_Bus_Util = 0.073784 
Issued_on_Two_Bus_Simul_Util = 0.002297 
issued_two_Eff = 0.031133 
queue_avg = 0.665190 


dram_util_bins: 0 0 0 0 0 0 0 0 0 0
dram_eff_bins: 0 0 0 0 0 0 0 0 0 0
mrqq: max=64 avg=0.66519
Memory Partition 10: 
Cache L2_bank_020:
MSHR contents

Cache L2_bank_021:
MSHR contents

In Dram Latency Queue (total = 0): 
DRAM[10]: 16 bks, busW=2 BL=16 CL=24, tRRD=12 tCCD=4, tRCD=24 tRAS=55 tRP=24 tRC=78
n_cmd=85863699 n_nop=79499221 n_act=1981496 n_pre=1981480 n_ref_event=0 n_req=2563164 n_rd=2523890 n_rd_L2_A=0 n_write=0 n_wr_bk=78521 bw_util=0.1212
n_activity=56378001 dram_eff=0.1846
bk0: 160031a 77934617i bk1: 156825a 78140107i bk2: 152543a 78332493i bk3: 153319a 78331575i bk4: 155929a 78119205i bk5: 155613a 78198819i bk6: 151075a 78410624i bk7: 150456a 78491674i bk8: 164748a 77610301i bk9: 161375a 77790713i bk10: 164730a 77570702i bk11: 162310a 77706072i bk12: 165787a 77488030i bk13: 165979a 77478587i bk14: 152811a 78274635i bk15: 150359a 78483111i 

------------------------------------------------------------------------

Row_Buffer_Locality = 0.226937
Row_Buffer_Locality_read = 0.228280
Row_Buffer_Locality_write = 0.140602
Bank_Level_Parallism = 2.590766
Bank_Level_Parallism_Col = 1.497759
Bank_Level_Parallism_Ready = 1.083574
write_to_read_ratio_blp_rw_average = 0.022325
GrpLevelPara = 1.365245 

BW Util details:
bwutil = 0.121235 
total_CMD = 85863699 
util_bw = 10409644 
Wasted_Col = 28241281 
Wasted_Row = 11038576 
Idle = 36174198 

BW Util Bottlenecks: 
RCDc_limit = 37582064 
RCDWRc_limit = 313405 
WTRc_limit = 1003467 
RTWc_limit = 886567 
CCDLc_limit = 1423955 
rwq = 0 
CCDLc_limit_alone = 1338234 
WTRc_limit_alone = 961205 
RTWc_limit_alone = 843108 

Commands details: 
total_CMD = 85863699 
n_nop = 79499221 
Read = 2523890 
Write = 0 
L2_Alloc = 0 
L2_WB = 78521 
n_act = 1981496 
n_pre = 1981480 
n_ref = 0 
n_req = 2563164 
total_req = 2602411 

Dual Bus Interface Util: 
issued_total_row = 3962976 
issued_total_col = 2602411 
Row_Bus_Util =  0.046154 
CoL_Bus_Util = 0.030309 
Either_Row_CoL_Bus_Util = 0.074123 
Issued_on_Two_Bus_Simul_Util = 0.002340 
issued_two_Eff = 0.031567 
queue_avg = 0.636640 


dram_util_bins: 0 0 0 0 0 0 0 0 0 0
dram_eff_bins: 0 0 0 0 0 0 0 0 0 0
mrqq: max=64 avg=0.63664
Memory Partition 11: 
Cache L2_bank_022:
MSHR contents

Cache L2_bank_023:
MSHR contents

In Dram Latency Queue (total = 0): 
DRAM[11]: 16 bks, busW=2 BL=16 CL=24, tRRD=12 tCCD=4, tRCD=24 tRAS=55 tRP=24 tRC=78
n_cmd=85863699 n_nop=79595523 n_act=1948063 n_pre=1948047 n_ref_event=0 n_req=2527123 n_rd=2487958 n_rd_L2_A=0 n_write=0 n_wr_bk=78351 bw_util=0.1196
n_activity=56262705 dram_eff=0.1825
bk0: 155479a 78248158i bk1: 158542a 78062487i bk2: 146776a 78661378i bk3: 148059a 78608913i bk4: 160092a 77940801i bk5: 154039a 78288132i bk6: 146783a 78691408i bk7: 148136a 78676725i bk8: 156512a 78127273i bk9: 159120a 77982524i bk10: 161255a 77785570i bk11: 159346a 77911179i bk12: 164531a 77613309i bk13: 164972a 77602659i bk14: 151528a 78370858i bk15: 152788a 78320817i 

------------------------------------------------------------------------

Row_Buffer_Locality = 0.229141
Row_Buffer_Locality_read = 0.230571
Row_Buffer_Locality_write = 0.138287
Bank_Level_Parallism = 2.554882
Bank_Level_Parallism_Col = 1.492117
Bank_Level_Parallism_Ready = 1.086912
write_to_read_ratio_blp_rw_average = 0.022412
GrpLevelPara = 1.359122 

BW Util details:
bwutil = 0.119553 
total_CMD = 85863699 
util_bw = 10265236 
Wasted_Col = 27983981 
Wasted_Row = 11148237 
Idle = 36466245 

BW Util Bottlenecks: 
RCDc_limit = 37048315 
RCDWRc_limit = 314860 
WTRc_limit = 997513 
RTWc_limit = 866529 
CCDLc_limit = 1394613 
rwq = 0 
CCDLc_limit_alone = 1310432 
WTRc_limit_alone = 955512 
RTWc_limit_alone = 824349 

Commands details: 
total_CMD = 85863699 
n_nop = 79595523 
Read = 2487958 
Write = 0 
L2_Alloc = 0 
L2_WB = 78351 
n_act = 1948063 
n_pre = 1948047 
n_ref = 0 
n_req = 2527123 
total_req = 2566309 

Dual Bus Interface Util: 
issued_total_row = 3896110 
issued_total_col = 2566309 
Row_Bus_Util =  0.045376 
CoL_Bus_Util = 0.029888 
Either_Row_CoL_Bus_Util = 0.073001 
Issued_on_Two_Bus_Simul_Util = 0.002262 
issued_two_Eff = 0.030989 
queue_avg = 0.617605 


dram_util_bins: 0 0 0 0 0 0 0 0 0 0
dram_eff_bins: 0 0 0 0 0 0 0 0 0 0
mrqq: max=64 avg=0.617605

========= L2 cache stats =========
L2_cache_bank[0]: Access = 2819354, Miss = 1268862, Miss_rate = 0.450, Pending_hits = 4897, Reservation_fails = 1144
L2_cache_bank[1]: Access = 2859952, Miss = 1265872, Miss_rate = 0.443, Pending_hits = 3837, Reservation_fails = 492
L2_cache_bank[2]: Access = 2839386, Miss = 1253711, Miss_rate = 0.442, Pending_hits = 3446, Reservation_fails = 834
L2_cache_bank[3]: Access = 2992051, Miss = 1261416, Miss_rate = 0.422, Pending_hits = 3634, Reservation_fails = 2054
L2_cache_bank[4]: Access = 2844085, Miss = 1269783, Miss_rate = 0.446, Pending_hits = 3767, Reservation_fails = 366
L2_cache_bank[5]: Access = 2805860, Miss = 1259880, Miss_rate = 0.449, Pending_hits = 3646, Reservation_fails = 926
L2_cache_bank[6]: Access = 2870373, Miss = 1256425, Miss_rate = 0.438, Pending_hits = 3798, Reservation_fails = 2304
L2_cache_bank[7]: Access = 2835696, Miss = 1256428, Miss_rate = 0.443, Pending_hits = 3714, Reservation_fails = 1964
L2_cache_bank[8]: Access = 3237856, Miss = 1252486, Miss_rate = 0.387, Pending_hits = 5068, Reservation_fails = 4403
L2_cache_bank[9]: Access = 2873350, Miss = 1248150, Miss_rate = 0.434, Pending_hits = 3873, Reservation_fails = 2442
L2_cache_bank[10]: Access = 2873939, Miss = 1260689, Miss_rate = 0.439, Pending_hits = 4385, Reservation_fails = 3600
L2_cache_bank[11]: Access = 2787921, Miss = 1267289, Miss_rate = 0.455, Pending_hits = 4051, Reservation_fails = 3221
L2_cache_bank[12]: Access = 2966078, Miss = 1250660, Miss_rate = 0.422, Pending_hits = 4216, Reservation_fails = 6336
L2_cache_bank[13]: Access = 2870637, Miss = 1262298, Miss_rate = 0.440, Pending_hits = 4059, Reservation_fails = 2575
L2_cache_bank[14]: Access = 2928157, Miss = 1274086, Miss_rate = 0.435, Pending_hits = 4030, Reservation_fails = 1671
L2_cache_bank[15]: Access = 2869132, Miss = 1263795, Miss_rate = 0.440, Pending_hits = 3725, Reservation_fails = 3652
L2_cache_bank[16]: Access = 2846798, Miss = 1261348, Miss_rate = 0.443, Pending_hits = 4633, Reservation_fails = 844
L2_cache_bank[17]: Access = 2894433, Miss = 1272171, Miss_rate = 0.440, Pending_hits = 3743, Reservation_fails = 1852
L2_cache_bank[18]: Access = 2830819, Miss = 1265665, Miss_rate = 0.447, Pending_hits = 3950, Reservation_fails = 2104
L2_cache_bank[19]: Access = 2861401, Miss = 1247120, Miss_rate = 0.436, Pending_hits = 3747, Reservation_fails = 2197
L2_cache_bank[20]: Access = 2918150, Miss = 1267663, Miss_rate = 0.434, Pending_hits = 3658, Reservation_fails = 3543
L2_cache_bank[21]: Access = 2824894, Miss = 1256247, Miss_rate = 0.445, Pending_hits = 3636, Reservation_fails = 4931
L2_cache_bank[22]: Access = 2868978, Miss = 1242965, Miss_rate = 0.433, Pending_hits = 3818, Reservation_fails = 1946
L2_cache_bank[23]: Access = 2841058, Miss = 1245009, Miss_rate = 0.438, Pending_hits = 3652, Reservation_fails = 2838
L2_total_cache_accesses = 69160358
L2_total_cache_misses = 30230018
L2_total_cache_miss_rate = 0.4371
L2_total_cache_pending_hits = 94983
L2_total_cache_reservation_fails = 58239
L2_total_cache_breakdown:
	L2_cache_stats_breakdown[GLOBAL_ACC_R][HIT] = 37304457
	L2_cache_stats_breakdown[GLOBAL_ACC_R][HIT_RESERVED] = 94981
	L2_cache_stats_breakdown[GLOBAL_ACC_R][MISS] = 11781033
	L2_cache_stats_breakdown[GLOBAL_ACC_R][RESERVATION_FAIL] = 58239
	L2_cache_stats_breakdown[GLOBAL_ACC_R][SECTOR_MISS] = 18448707
	L2_cache_stats_breakdown[GLOBAL_ACC_R][MSHR_HIT] = 94981
	L2_cache_stats_breakdown[LOCAL_ACC_R][HIT] = 0
	L2_cache_stats_breakdown[LOCAL_ACC_R][HIT_RESERVED] = 0
	L2_cache_stats_breakdown[LOCAL_ACC_R][MISS] = 0
	L2_cache_stats_breakdown[LOCAL_ACC_R][RESERVATION_FAIL] = 0
	L2_cache_stats_breakdown[LOCAL_ACC_R][SECTOR_MISS] = 0
	L2_cache_stats_breakdown[LOCAL_ACC_R][MSHR_HIT] = 0
	L2_cache_stats_breakdown[CONST_ACC_R][HIT] = 0
	L2_cache_stats_breakdown[CONST_ACC_R][HIT_RESERVED] = 0
	L2_cache_stats_breakdown[CONST_ACC_R][MISS] = 0
	L2_cache_stats_breakdown[CONST_ACC_R][RESERVATION_FAIL] = 0
	L2_cache_stats_breakdown[CONST_ACC_R][SECTOR_MISS] = 0
	L2_cache_stats_breakdown[CONST_ACC_R][MSHR_HIT] = 0
	L2_cache_stats_breakdown[TEXTURE_ACC_R][HIT] = 0
	L2_cache_stats_breakdown[TEXTURE_ACC_R][HIT_RESERVED] = 0
	L2_cache_stats_breakdown[TEXTURE_ACC_R][MISS] = 0
	L2_cache_stats_breakdown[TEXTURE_ACC_R][RESERVATION_FAIL] = 0
	L2_cache_stats_breakdown[TEXTURE_ACC_R][SECTOR_MISS] = 0
	L2_cache_stats_breakdown[TEXTURE_ACC_R][MSHR_HIT] = 0
	L2_cache_stats_breakdown[GLOBAL_ACC_W][HIT] = 1530900
	L2_cache_stats_breakdown[GLOBAL_ACC_W][HIT_RESERVED] = 2
	L2_cache_stats_breakdown[GLOBAL_ACC_W][MISS] = 170
	L2_cache_stats_breakdown[GLOBAL_ACC_W][RESERVATION_FAIL] = 0
	L2_cache_stats_breakdown[GLOBAL_ACC_W][SECTOR_MISS] = 108
	L2_cache_stats_breakdown[GLOBAL_ACC_W][MSHR_HIT] = 0
	L2_cache_stats_breakdown[LOCAL_ACC_W][HIT] = 0
	L2_cache_stats_breakdown[LOCAL_ACC_W][HIT_RESERVED] = 0
	L2_cache_stats_breakdown[LOCAL_ACC_W][MISS] = 0
	L2_cache_stats_breakdown[LOCAL_ACC_W][RESERVATION_FAIL] = 0
	L2_cache_stats_breakdown[LOCAL_ACC_W][SECTOR_MISS] = 0
	L2_cache_stats_breakdown[LOCAL_ACC_W][MSHR_HIT] = 0
	L2_cache_stats_breakdown[L1_WRBK_ACC][HIT] = 0
	L2_cache_stats_breakdown[L1_WRBK_ACC][HIT_RESERVED] = 0
	L2_cache_stats_breakdown[L1_WRBK_ACC][MISS] = 0
	L2_cache_stats_breakdown[L1_WRBK_ACC][RESERVATION_FAIL] = 0
	L2_cache_stats_breakdown[L1_WRBK_ACC][SECTOR_MISS] = 0
	L2_cache_stats_breakdown[L1_WRBK_ACC][MSHR_HIT] = 0
	L2_cache_stats_breakdown[L2_WRBK_ACC][HIT] = 0
	L2_cache_stats_breakdown[L2_WRBK_ACC][HIT_RESERVED] = 0
	L2_cache_stats_breakdown[L2_WRBK_ACC][MISS] = 0
	L2_cache_stats_breakdown[L2_WRBK_ACC][RESERVATION_FAIL] = 0
	L2_cache_stats_breakdown[L2_WRBK_ACC][SECTOR_MISS] = 0
	L2_cache_stats_breakdown[L2_WRBK_ACC][MSHR_HIT] = 0
	L2_cache_stats_breakdown[INST_ACC_R][HIT] = 0
	L2_cache_stats_breakdown[INST_ACC_R][HIT_RESERVED] = 0
	L2_cache_stats_breakdown[INST_ACC_R][MISS] = 0
	L2_cache_stats_breakdown[INST_ACC_R][RESERVATION_FAIL] = 0
	L2_cache_stats_breakdown[INST_ACC_R][SECTOR_MISS] = 0
	L2_cache_stats_breakdown[INST_ACC_R][MSHR_HIT] = 0
	L2_cache_stats_breakdown[L1_WR_ALLOC_R][HIT] = 0
	L2_cache_stats_breakdown[L1_WR_ALLOC_R][HIT_RESERVED] = 0
	L2_cache_stats_breakdown[L1_WR_ALLOC_R][MISS] = 0
	L2_cache_stats_breakdown[L1_WR_ALLOC_R][RESERVATION_FAIL] = 0
	L2_cache_stats_breakdown[L1_WR_ALLOC_R][SECTOR_MISS] = 0
	L2_cache_stats_breakdown[L1_WR_ALLOC_R][MSHR_HIT] = 0
	L2_cache_stats_breakdown[L2_WR_ALLOC_R][HIT] = 0
	L2_cache_stats_breakdown[L2_WR_ALLOC_R][HIT_RESERVED] = 0
	L2_cache_stats_breakdown[L2_WR_ALLOC_R][MISS] = 0
	L2_cache_stats_breakdown[L2_WR_ALLOC_R][RESERVATION_FAIL] = 0
	L2_cache_stats_breakdown[L2_WR_ALLOC_R][SECTOR_MISS] = 0
	L2_cache_stats_breakdown[L2_WR_ALLOC_R][MSHR_HIT] = 0
	L2_cache_stats_breakdown[GLOBAL_ACC_R][TOTAL_ACCESS] = 67629178
	L2_cache_stats_breakdown[GLOBAL_ACC_W][TOTAL_ACCESS] = 1531180
L2_total_cache_reservation_fail_breakdown:
	L2_cache_stats_fail_breakdown[GLOBAL_ACC_R][MSHR_ENRTY_FAIL] = 3037
	L2_cache_stats_fail_breakdown[GLOBAL_ACC_R][MSHR_MERGE_ENRTY_FAIL] = 55202
L2_cache_data_port_util = 0.048
L2_cache_fill_port_util = 0.038

icnt_total_pkts_mem_to_simt=69160358
icnt_total_pkts_simt_to_mem=69160358
LD_mem_lat_dist  0 0 0 0 0 0 0 0 0 0 0 0 0 0 0 0 0 0 0 0 0 0 0 0 0 0 0
ST_mem_lat_dist  0 0 0 0 0 0 0 0 0 0 0 0 0 0 0 0 0 0 0 0 0 0 0 0 0 0 0
----------------------------Interconnect-DETAILS--------------------------------
Req_Network_injected_packets_num = 69160358
Req_Network_cycles = 33482069
Req_Network_injected_packets_per_cycle =       2.0656 
Req_Network_conflicts_per_cycle =       0.2149
Req_Network_conflicts_per_cycle_util =       0.3304
Req_Bank_Level_Parallism =       3.1754
Req_Network_in_buffer_full_per_cycle =       0.0000
Req_Network_in_buffer_avg_util =       0.3959
Req_Network_out_buffer_full_per_cycle =       0.0001
Req_Network_out_buffer_avg_util =       0.2463

Reply_Network_injected_packets_num = 69160358
Reply_Network_cycles = 33482069
Reply_Network_injected_packets_per_cycle =        2.0656
Reply_Network_conflicts_per_cycle =        1.2775
Reply_Network_conflicts_per_cycle_util =       1.9558
Reply_Bank_Level_Parallism =       3.1624
Reply_Network_in_buffer_full_per_cycle =       0.0000
Reply_Network_in_buffer_avg_util =       0.1705
Reply_Network_out_buffer_full_per_cycle =       0.0000
Reply_Network_out_buffer_avg_util =       0.0689
----------------------------END-of-Interconnect-DETAILS-------------------------


gpgpu_simulation_time = 1 days, 15 hrs, 42 min, 36 sec (142956 sec)
gpgpu_simulation_rate = 5158 (inst/sec)
gpgpu_simulation_rate = 234 (cycle/sec)
gpgpu_silicon_slowdown = 5833333x
GPGPU-Sim: synchronize waiting for inactive GPU simulation
GPGPU-Sim API: Stream Manager State
GPGPU-Sim: detected inactive GPU simulation thread
	iterations = 6.
	runtime [cuda_base] = 142940157.689000 ms.
Verifying...
	runtime [serial] = 385.900000 ms.
Correct
GPGPU-Sim: *** exit detected ***
