

        *** GPGPU-Sim Simulator Version 4.2.0  [build gpgpu-sim_git-commit-5e9d31b8132651796656877ecb58fde27177ba7a_modified_315.0] ***


GPGPU-Sim PTX: simulation mode 0 (can change with PTX_SIM_MODE_FUNC environment variable:
               1=functional simulation only, 0=detailed performance simulator)
GPGPU-Sim PTX: overriding embedded ptx with ptx file (PTX_SIM_USE_PTX_FILE is set)
GPGPU-Sim: Configuration options:

-save_embedded_ptx                      0 # saves ptx files embedded in binary as <n>.ptx
-keep                                   0 # keep intermediate files created by GPGPU-Sim when interfacing with external programs
-gpgpu_ptx_save_converted_ptxplus                    0 # Saved converted ptxplus to a file
-gpgpu_occupancy_sm_number                   75 # The SM number to pass to ptxas when getting register usage for computing GPU occupancy. This parameter is required in the config.
-ptx_opcode_latency_int           4,4,4,4,21 # Opcode latencies for integers <ADD,MAX,MUL,MAD,DIV,SHFL>Default 1,1,19,25,145,32
-ptx_opcode_latency_fp           4,4,4,4,39 # Opcode latencies for single precision floating points <ADD,MAX,MUL,MAD,DIV>Default 1,1,1,1,30
-ptx_opcode_latency_dp      64,64,64,64,330 # Opcode latencies for double precision floating points <ADD,MAX,MUL,MAD,DIV>Default 8,8,8,8,335
-ptx_opcode_latency_sfu                   21 # Opcode latencies for SFU instructionsDefault 8
-ptx_opcode_latency_tesnor                   64 # Opcode latencies for Tensor instructionsDefault 64
-ptx_opcode_initiation_int            2,2,2,2,2 # Opcode initiation intervals for integers <ADD,MAX,MUL,MAD,DIV,SHFL>Default 1,1,4,4,32,4
-ptx_opcode_initiation_fp            2,2,2,2,4 # Opcode initiation intervals for single precision floating points <ADD,MAX,MUL,MAD,DIV>Default 1,1,1,1,5
-ptx_opcode_initiation_dp      64,64,64,64,130 # Opcode initiation intervals for double precision floating points <ADD,MAX,MUL,MAD,DIV>Default 8,8,8,8,130
-ptx_opcode_initiation_sfu                    8 # Opcode initiation intervals for sfu instructionsDefault 8
-ptx_opcode_initiation_tensor                   64 # Opcode initiation intervals for tensor instructionsDefault 64
-cdp_latency         7200,8000,100,12000,1600 # CDP API latency <cudaStreamCreateWithFlags, cudaGetParameterBufferV2_init_perWarp, cudaGetParameterBufferV2_perKernel, cudaLaunchDeviceV2_init_perWarp, cudaLaunchDevicV2_perKernel>Default 7200,8000,100,12000,1600
-network_mode                           2 # Interconnection network mode
-inter_config_file                   mesh # Interconnection network config file
-icnt_in_buffer_limit                  512 # in_buffer_limit
-icnt_out_buffer_limit                  512 # out_buffer_limit
-icnt_subnets                           2 # subnets
-icnt_arbiter_algo                      1 # arbiter_algo
-icnt_verbose                           0 # inct_verbose
-icnt_grant_cycles                      1 # grant_cycles
-gpgpu_ptx_use_cuobjdump                    1 # Use cuobjdump to extract ptx and sass from binaries
-gpgpu_experimental_lib_support                    0 # Try to extract code from cuda libraries [Broken because of unknown cudaGetExportTable]
-checkpoint_option                      0 #  checkpointing flag (0 = no checkpoint)
-checkpoint_kernel                      1 #  checkpointing during execution of which kernel (1- 1st kernel)
-checkpoint_CTA                         0 #  checkpointing after # of CTA (< less than total CTA)
-resume_option                          0 #  resume flag (0 = no resume)
-resume_kernel                          0 #  Resume from which kernel (1= 1st kernel)
-resume_CTA                             0 #  resume from which CTA 
-checkpoint_CTA_t                       0 #  resume from which CTA 
-checkpoint_insn_Y                      0 #  resume from which CTA 
-gpgpu_ptx_convert_to_ptxplus                    0 # Convert SASS (native ISA) to ptxplus and run ptxplus
-gpgpu_ptx_force_max_capability                   75 # Force maximum compute capability
-gpgpu_ptx_inst_debug_to_file                    0 # Dump executed instructions' debug information to file
-gpgpu_ptx_inst_debug_file       inst_debug.txt # Executed instructions' debug output file
-gpgpu_ptx_inst_debug_thread_uid                    1 # Thread UID for executed instructions' debug output
-gpgpu_simd_model                       1 # 1 = post-dominator
-gpgpu_shader_core_pipeline              1024:32 # shader core pipeline config, i.e., {<nthread>:<warpsize>}
-gpgpu_tex_cache:l1  N:4:128:256,L:R:m:N:L,T:512:8,128:2 # per-shader L1 texture cache  (READ-ONLY) config  {<nsets>:<bsize>:<assoc>,<rep>:<wr>:<alloc>:<wr_alloc>,<mshr>:<N>:<merge>,<mq>:<rf>}
-gpgpu_const_cache:l1 N:128:64:8,L:R:f:N:L,S:2:64,4 # per-shader L1 constant memory cache  (READ-ONLY) config  {<nsets>:<bsize>:<assoc>,<rep>:<wr>:<alloc>:<wr_alloc>,<mshr>:<N>:<merge>,<mq>} 
-gpgpu_cache:il1     N:64:128:16,L:R:f:N:L,S:2:48,4 # shader L1 instruction cache config  {<nsets>:<bsize>:<assoc>,<rep>:<wr>:<alloc>:<wr_alloc>,<mshr>:<N>:<merge>,<mq>} 
-gpgpu_cache:dl1     S:4:128:64,L:T:m:L:L,A:256:32,16:0,32 # per-shader L1 data cache config  {<nsets>:<bsize>:<assoc>,<rep>:<wr>:<alloc>:<wr_alloc>,<mshr>:<N>:<merge>,<mq> | none}
-gpgpu_l1_cache_write_ratio                   25 # L1D write ratio
-gpgpu_l1_banks                         4 # The number of L1 cache banks
-gpgpu_l1_banks_byte_interleaving                   32 # l1 banks byte interleaving granularity
-gpgpu_l1_banks_hashing_function                    0 # l1 banks hashing function
-gpgpu_l1_latency                      32 # L1 Hit Latency
-gpgpu_smem_latency                    30 # smem Latency
-gpgpu_cache:dl1PrefL1                 none # per-shader L1 data cache config  {<nsets>:<bsize>:<assoc>,<rep>:<wr>:<alloc>:<wr_alloc>,<mshr>:<N>:<merge>,<mq> | none}
-gpgpu_cache:dl1PrefShared                 none # per-shader L1 data cache config  {<nsets>:<bsize>:<assoc>,<rep>:<wr>:<alloc>:<wr_alloc>,<mshr>:<N>:<merge>,<mq> | none}
-gpgpu_gmem_skip_L1D                    0 # global memory access skip L1D cache (implements -Xptxas -dlcm=cg, default=no skip)
-gpgpu_perfect_mem                      0 # enable perfect memory mode (no cache miss)
-n_regfile_gating_group                    4 # group of lanes that should be read/written together)
-gpgpu_clock_gated_reg_file                    0 # enable clock gated reg file for power calculations
-gpgpu_clock_gated_lanes                    0 # enable clock gated lanes for power calculations
-gpgpu_shader_registers                65536 # Number of registers per shader core. Limits number of concurrent CTAs. (default 8192)
-gpgpu_registers_per_block                65536 # Maximum number of registers per CTA. (default 8192)
-gpgpu_ignore_resources_limitation                    0 # gpgpu_ignore_resources_limitation (default 0)
-gpgpu_shader_cta                      16 # Maximum number of concurrent CTAs in shader (default 32)
-gpgpu_num_cta_barriers                   16 # Maximum number of named barriers per CTA (default 16)
-gpgpu_n_clusters                      30 # number of processing clusters
-gpgpu_n_cores_per_cluster                    1 # number of simd cores per cluster
-gpgpu_n_cluster_ejection_buffer_size                   32 # number of packets in ejection buffer
-gpgpu_n_ldst_response_buffer_size                    2 # number of response packets in ld/st unit ejection buffer
-gpgpu_shmem_per_block                49152 # Size of shared memory per thread block or CTA (default 48kB)
-gpgpu_shmem_size                   65536 # Size of shared memory per shader core (default 16kB)
-gpgpu_shmem_option                 32,64 # Option list of shared memory sizes
-gpgpu_unified_l1d_size                   96 # Size of unified data cache(L1D + shared memory) in KB
-gpgpu_adaptive_cache_config                    1 # adaptive_cache_config
-gpgpu_shmem_sizeDefault                65536 # Size of shared memory per shader core (default 16kB)
-gpgpu_shmem_size_PrefL1                16384 # Size of shared memory per shader core (default 16kB)
-gpgpu_shmem_size_PrefShared                16384 # Size of shared memory per shader core (default 16kB)
-gpgpu_shmem_num_banks                   32 # Number of banks in the shared memory in each shader core (default 16)
-gpgpu_shmem_limited_broadcast                    0 # Limit shared memory to do one broadcast per cycle (default on)
-gpgpu_shmem_warp_parts                    1 # Number of portions a warp is divided into for shared memory bank conflict check 
-gpgpu_mem_unit_ports                    1 # The number of memory transactions allowed per core cycle
-gpgpu_shmem_warp_parts                    1 # Number of portions a warp is divided into for shared memory bank conflict check 
-gpgpu_warpdistro_shader                   -1 # Specify which shader core to collect the warp size distribution from
-gpgpu_warp_issue_shader                    0 # Specify which shader core to collect the warp issue distribution from
-gpgpu_local_mem_map                    1 # Mapping from local memory space address to simulated GPU physical address space (default = enabled)
-gpgpu_num_reg_banks                    8 # Number of register banks (default = 8)
-gpgpu_reg_bank_use_warp_id                    0 # Use warp ID in mapping registers to banks (default = off)
-gpgpu_sub_core_model                    1 # Sub Core Volta/Pascal model (default = off)
-gpgpu_enable_specialized_operand_collector                    0 # enable_specialized_operand_collector
-gpgpu_operand_collector_num_units_sp                    4 # number of collector units (default = 4)
-gpgpu_operand_collector_num_units_dp                    0 # number of collector units (default = 0)
-gpgpu_operand_collector_num_units_sfu                    4 # number of collector units (default = 4)
-gpgpu_operand_collector_num_units_int                    0 # number of collector units (default = 0)
-gpgpu_operand_collector_num_units_tensor_core                    4 # number of collector units (default = 4)
-gpgpu_operand_collector_num_units_mem                    2 # number of collector units (default = 2)
-gpgpu_operand_collector_num_units_gen                    8 # number of collector units (default = 0)
-gpgpu_operand_collector_num_in_ports_sp                    1 # number of collector unit in ports (default = 1)
-gpgpu_operand_collector_num_in_ports_dp                    0 # number of collector unit in ports (default = 0)
-gpgpu_operand_collector_num_in_ports_sfu                    1 # number of collector unit in ports (default = 1)
-gpgpu_operand_collector_num_in_ports_int                    0 # number of collector unit in ports (default = 0)
-gpgpu_operand_collector_num_in_ports_tensor_core                    1 # number of collector unit in ports (default = 1)
-gpgpu_operand_collector_num_in_ports_mem                    1 # number of collector unit in ports (default = 1)
-gpgpu_operand_collector_num_in_ports_gen                    8 # number of collector unit in ports (default = 0)
-gpgpu_operand_collector_num_out_ports_sp                    1 # number of collector unit in ports (default = 1)
-gpgpu_operand_collector_num_out_ports_dp                    0 # number of collector unit in ports (default = 0)
-gpgpu_operand_collector_num_out_ports_sfu                    1 # number of collector unit in ports (default = 1)
-gpgpu_operand_collector_num_out_ports_int                    0 # number of collector unit in ports (default = 0)
-gpgpu_operand_collector_num_out_ports_tensor_core                    1 # number of collector unit in ports (default = 1)
-gpgpu_operand_collector_num_out_ports_mem                    1 # number of collector unit in ports (default = 1)
-gpgpu_operand_collector_num_out_ports_gen                    8 # number of collector unit in ports (default = 0)
-gpgpu_coalesce_arch                   75 # Coalescing arch (GT200 = 13, Fermi = 20)
-gpgpu_num_sched_per_core                    4 # Number of warp schedulers per core
-gpgpu_max_insn_issue_per_warp                    1 # Max number of instructions that can be issued per warp in one cycle by scheduler (either 1 or 2)
-gpgpu_dual_issue_diff_exec_units                    1 # should dual issue use two different execution unit resources (Default = 1)
-gpgpu_simt_core_sim_order                    1 # Select the simulation order of cores in a cluster (0=Fix, 1=Round-Robin)
-gpgpu_pipeline_widths 4,4,4,4,4,4,4,4,4,4,8,4,4 # Pipeline widths ID_OC_SP,ID_OC_DP,ID_OC_INT,ID_OC_SFU,ID_OC_MEM,OC_EX_SP,OC_EX_DP,OC_EX_INT,OC_EX_SFU,OC_EX_MEM,EX_WB,ID_OC_TENSOR_CORE,OC_EX_TENSOR_CORE
-gpgpu_tensor_core_avail                    1 # Tensor Core Available (default=0)
-gpgpu_num_sp_units                     4 # Number of SP units (default=1)
-gpgpu_num_dp_units                     4 # Number of DP units (default=0)
-gpgpu_num_int_units                    4 # Number of INT units (default=0)
-gpgpu_num_sfu_units                    4 # Number of SF units (default=1)
-gpgpu_num_tensor_core_units                    4 # Number of tensor_core units (default=1)
-gpgpu_num_mem_units                    1 # Number if ldst units (default=1) WARNING: not hooked up to anything
-gpgpu_scheduler                      lrr # Scheduler configuration: < lrr | gto | two_level_active > If two_level_active:<num_active_warps>:<inner_prioritization>:<outer_prioritization>For complete list of prioritization values see shader.h enum scheduler_prioritization_typeDefault: gto
-gpgpu_concurrent_kernel_sm                    0 # Support concurrent kernels on a SM (default = disabled)
-gpgpu_perfect_inst_const_cache                    1 # perfect inst and const cache mode, so all inst and const hits in the cache(default = disabled)
-gpgpu_inst_fetch_throughput                    4 # the number of fetched intruction per warp each cycle
-gpgpu_reg_file_port_throughput                    2 # the number ports of the register file
-specialized_unit_1         0,4,4,4,4,BRA # specialized unit config {<enabled>,<num_units>:<latency>:<initiation>,<ID_OC_SPEC>:<OC_EX_SPEC>,<NAME>}
-specialized_unit_2         0,4,4,4,4,BRA # specialized unit config {<enabled>,<num_units>:<latency>:<initiation>,<ID_OC_SPEC>:<OC_EX_SPEC>,<NAME>}
-specialized_unit_3         0,4,4,4,4,BRA # specialized unit config {<enabled>,<num_units>:<latency>:<initiation>,<ID_OC_SPEC>:<OC_EX_SPEC>,<NAME>}
-specialized_unit_4         0,4,4,4,4,BRA # specialized unit config {<enabled>,<num_units>:<latency>:<initiation>,<ID_OC_SPEC>:<OC_EX_SPEC>,<NAME>}
-specialized_unit_5         0,4,4,4,4,BRA # specialized unit config {<enabled>,<num_units>:<latency>:<initiation>,<ID_OC_SPEC>:<OC_EX_SPEC>,<NAME>}
-specialized_unit_6         0,4,4,4,4,BRA # specialized unit config {<enabled>,<num_units>:<latency>:<initiation>,<ID_OC_SPEC>:<OC_EX_SPEC>,<NAME>}
-specialized_unit_7         0,4,4,4,4,BRA # specialized unit config {<enabled>,<num_units>:<latency>:<initiation>,<ID_OC_SPEC>:<OC_EX_SPEC>,<NAME>}
-specialized_unit_8         0,4,4,4,4,BRA # specialized unit config {<enabled>,<num_units>:<latency>:<initiation>,<ID_OC_SPEC>:<OC_EX_SPEC>,<NAME>}
-gpgpu_perf_sim_memcpy                    1 # Fill the L2 cache on memcpy
-gpgpu_simple_dram_model                    0 # simple_dram_model with fixed latency and BW
-gpgpu_dram_scheduler                    1 # 0 = fifo, 1 = FR-FCFS (defaul)
-gpgpu_dram_partition_queues          64:64:64:64 # i2$:$2d:d2$:$2i
-l2_ideal                               0 # Use a ideal L2 cache that always hit
-gpgpu_cache:dl2     S:64:128:16,L:B:m:L:P,A:192:4,32:0,32 # unified banked L2 data cache config  {<nsets>:<bsize>:<assoc>,<rep>:<wr>:<alloc>:<wr_alloc>,<mshr>:<N>:<merge>,<mq>}
-gpgpu_cache:dl2_texture_only                    0 # L2 cache used for texture only
-gpgpu_n_mem                           12 # number of memory modules (e.g. memory controllers) in gpu
-gpgpu_n_sub_partition_per_mchannel                    2 # number of memory subpartition in each memory module
-gpgpu_n_mem_per_ctrlr                    1 # number of memory chips per memory controller
-gpgpu_memlatency_stat                   14 # track and display latency statistics 0x2 enables MC, 0x4 enables queue logs
-gpgpu_frfcfs_dram_sched_queue_size                   64 # 0 = unlimited (default); # entries per chip
-gpgpu_dram_return_queue_size                  192 # 0 = unlimited (default); # entries per chip
-gpgpu_dram_buswidth                    2 # default = 4 bytes (8 bytes per cycle at DDR)
-gpgpu_dram_burst_length                   16 # Burst length of each DRAM request (default = 4 data bus cycle)
-dram_data_command_freq_ratio                    4 # Frequency ratio between DRAM data bus and command bus (default = 2 times, i.e. DDR)
-gpgpu_dram_timing_opt nbk=16:CCD=4:RRD=12:RCD=24:RAS=55:RP=24:RC=78:CL=24:WL=8:CDLR=10:WR=24:nbkgrp=4:CCDL=6:RTPL=4 # DRAM timing parameters = {nbk:tCCD:tRRD:tRCD:tRAS:tRP:tRC:CL:WL:tCDLR:tWR:nbkgrp:tCCDL:tRTPL}
-gpgpu_l2_rop_latency                  194 # ROP queue latency (default 85)
-dram_latency                          96 # DRAM latency (default 30)
-dram_dual_bus_interface                    0 # dual_bus_interface (default = 0) 
-dram_bnk_indexing_policy                    0 # dram_bnk_indexing_policy (0 = normal indexing, 1 = Xoring with the higher bits) (Default = 0)
-dram_bnkgrp_indexing_policy                    1 # dram_bnkgrp_indexing_policy (0 = take higher bits, 1 = take lower bits) (Default = 0)
-dram_seperate_write_queue_enable                    0 # Seperate_Write_Queue_Enable
-dram_write_queue_size             32:28:16 # Write_Queue_Size
-dram_elimnate_rw_turnaround                    0 # elimnate_rw_turnaround i.e set tWTR and tRTW = 0
-icnt_flit_size                        40 # icnt_flit_size
-icnt_flit_size                        40 # icnt_flit_size
-mem_profiler                           0 # memory access runtime profiling (0 = not enabled)
-gpgpu_mem_addr_mapping dramid@8;00000000.00000000.00000000.00000000.0000RRRR.RRRRRRRR.RBBBCCCC.BCCSSSSS # mapping memory address to dram model {dramid@<start bit>;<memory address map>}
-gpgpu_mem_addr_test                    0 # run sweep test to check address mapping for aliased address
-gpgpu_mem_address_mask                    1 # 0 = old addressing mask, 1 = new addressing mask, 2 = new add. mask + flipped bank sel and chip sel bits
-gpgpu_memory_partition_indexing                    0 # 0 = no indexing, 1 = bitwise xoring, 2 = IPoly, 3 = custom indexing
-accelwattch_xml_file accelwattch_sass_sim.xml # AccelWattch XML file
-power_simulation_enabled                    1 # Turn on power simulator (1=On, 0=Off)
-power_per_cycle_dump                    1 # Dump detailed power output each cycle
-hw_perf_file_name            hw_perf.csv # Hardware Performance Statistics file
-hw_perf_bench_name    hw_perf_bench_name # Kernel Name in Hardware Performance Statistics file
-power_simulation_mode                    0 # Switch performance counter input for power simulation (0=Sim, 1=HW, 2=HW-Sim Hybrid)
-dvfs_enabled                           1 # Turn on DVFS for power model
-aggregate_power_stats                    0 # Accumulate power across all kernels
-accelwattch_hybrid_perfsim_L1_RH                    0 # Get L1 Read Hits for Accelwattch-Hybrid from Accel-Sim
-accelwattch_hybrid_perfsim_L1_RM                    0 # Get L1 Read Misses for Accelwattch-Hybrid from Accel-Sim
-accelwattch_hybrid_perfsim_L1_WH                    0 # Get L1 Write Hits for Accelwattch-Hybrid from Accel-Sim
-accelwattch_hybrid_perfsim_L1_WM                    0 # Get L1 Write Misses for Accelwattch-Hybrid from Accel-Sim
-accelwattch_hybrid_perfsim_L2_RH                    0 # Get L2 Read Hits for Accelwattch-Hybrid from Accel-Sim
-accelwattch_hybrid_perfsim_L2_RM                    0 # Get L2 Read Misses for Accelwattch-Hybrid from Accel-Sim
-accelwattch_hybrid_perfsim_L2_WH                    0 # Get L2 Write Hits for Accelwattch-Hybrid from Accel-Sim
-accelwattch_hybrid_perfsim_L2_WM                    0 # Get L2 Write Misses for Accelwattch-Hybrid from Accel-Sim
-accelwattch_hybrid_perfsim_CC_ACC                    0 # Get Constant Cache Acesses for Accelwattch-Hybrid from Accel-Sim
-accelwattch_hybrid_perfsim_SHARED_ACC                    0 # Get Shared Memory Acesses for Accelwattch-Hybrid from Accel-Sim
-accelwattch_hybrid_perfsim_DRAM_RD                    0 # Get DRAM Reads for Accelwattch-Hybrid from Accel-Sim
-accelwattch_hybrid_perfsim_DRAM_WR                    0 # Get DRAM Writes for Accelwattch-Hybrid from Accel-Sim
-accelwattch_hybrid_perfsim_NOC                    0 # Get Interconnect Acesses for Accelwattch-Hybrid from Accel-Sim
-accelwattch_hybrid_perfsim_PIPE_DUTY                    0 # Get Pipeline Duty Cycle Acesses for Accelwattch-Hybrid from Accel-Sim
-accelwattch_hybrid_perfsim_NUM_SM_IDLE                    0 # Get Number of Idle SMs for Accelwattch-Hybrid from Accel-Sim
-accelwattch_hybrid_perfsim_CYCLES                    0 # Get Executed Cycles for Accelwattch-Hybrid from Accel-Sim
-accelwattch_hybrid_perfsim_VOLTAGE                    0 # Get Chip Voltage for Accelwattch-Hybrid from Accel-Sim
-power_trace_enabled                    0 # produce a file for the power trace (1=On, 0=Off)
-power_trace_zlevel                     0 # Compression level of the power trace output log (0=no comp, 9=highest)
-steady_power_levels_enabled                    0 # produce a file for the steady power levels (1=On, 0=Off)
-steady_state_definition                  8:4 # allowed deviation:number of samples
-gpgpu_max_cycle                        0 # terminates gpu simulation early (0 = no limit)
-gpgpu_max_insn                         0 # terminates gpu simulation early (0 = no limit)
-gpgpu_max_cta                          0 # terminates gpu simulation early (0 = no limit)
-gpgpu_max_completed_cta                    0 # terminates gpu simulation early (0 = no limit)
-gpgpu_runtime_stat                  1000 # display runtime statistics such as dram utilization {<freq>:<flag>}
-liveness_message_freq                    1 # Minimum number of seconds between simulation liveness messages (0 = always print)
-gpgpu_compute_capability_major                    7 # Major compute capability version number
-gpgpu_compute_capability_minor                    5 # Minor compute capability version number
-gpgpu_flush_l1_cache                    1 # Flush L1 cache at the end of each kernel call
-gpgpu_flush_l2_cache                    0 # Flush L2 cache at the end of each kernel call
-gpgpu_deadlock_detect                    1 # Stop the simulation at deadlock (1=on (default), 0=off)
-gpgpu_ptx_instruction_classification                    0 # if enabled will classify ptx instruction types per kernel (Max 255 kernels now)
-gpgpu_ptx_sim_mode                     0 # Select between Performance (default) or Functional simulation (1)
-gpgpu_clock_domains 1365:1365:1365:3500.5 # Clock Domain Frequencies in MhZ {<Core Clock>:<ICNT Clock>:<L2 Clock>:<DRAM Clock>}
-gpgpu_max_concurrent_kernel                  128 # maximum kernels that can run concurrently on GPU, set this value according to max resident grids for your compute capability
-gpgpu_cflog_interval                    0 # Interval between each snapshot in control flow logger
-visualizer_enabled                     0 # Turn on visualizer output (1=On, 0=Off)
-visualizer_outputfile                 NULL # Specifies the output log file for visualizer
-visualizer_zlevel                      6 # Compression level of the visualizer output log (0=no comp, 9=highest)
-gpgpu_stack_size_limit                 1024 # GPU thread stack size
-gpgpu_heap_size_limit              8388608 # GPU malloc heap size 
-gpgpu_runtime_sync_depth_limit                    2 # GPU device runtime synchronize depth
-gpgpu_runtime_pending_launch_count_limit                 2048 # GPU device runtime pending launch count
-trace_enabled                          0 # Turn on traces
-trace_components                    none # comma seperated list of traces to enable. Complete list found in trace_streams.tup. Default none
-trace_sampling_core                    0 # The core which is printed using CORE_DPRINTF. Default 0
-trace_sampling_memory_partition                   -1 # The memory partition which is printed using MEMPART_DPRINTF. Default -1 (i.e. all)
-enable_ptx_file_line_stats                    1 # Turn on PTX source line statistic profiling. (1 = On)
-ptx_line_stats_filename gpgpu_inst_stats.txt # Output file for PTX source line statistics.
-gpgpu_kernel_launch_latency                 5000 # Kernel launch latency in cycles. Default: 0
-gpgpu_cdp_enabled                      0 # Turn on CDP
-gpgpu_TB_launch_latency                    0 # thread block launch latency in cycles. Default: 0
-mem_runtime_stat                     100 # memory access runtime profiling sampling20be9959047424737a0422e874fccc2e  /home/pars/Documents/sim_11/cc_afforest
Extracting PTX file and ptxas options    1: cc_afforest.1.sm_75.ptx -arch=sm_75
 freq
-L1D_metrics                            0 # memory access runtime profiling for L1 data cache
-IPC_per_prof_interval                    0 # IPC per profiling interval
-instruction_monitor                    0 # Instruction monitor
-noncoal_metrics                        0 # memory access runtime profiling for shared memory
-L2_metrics                             0 # memory access runtime profiling for L2 cache
-DRAM_metrics                           0 # memory access runtime profiling for DRAM
-Shmem_metrics                          0 # memory access runtime profiling for noncoalesced accesses
-store_enable                           0 # Enable stores for memory profiling
-accumulate_stats                       0 # Accumulate stats for the memory profiling
-dump_enable                            0 # Process dump enable flag - (def = 0)
-flush_l1d                              0 # Enable flushings for L1D caches - (default = 0)
-flush_l2                               0 # Enable flushings for L2 caches - (default = 0)
-flush_dram                             0 # Enable flushings for DRAM - (default = 0)
-flush_noncoalesceds                    0 # Enable flushings for non coalesced accesses - (default = 0)
-flush_shmems                           0 # Enable flushings for shared memory accesses - (default = 0)
-error_percentage          21474836480001 # Error percentage for the flushes - (default = 1)
-dump_sampling_cycle       21474836485000 # Dump sampling frequency - (default = 5000)
-flush_acc_type                         2 # Flush access types
-monitor_sampling_cycle                 5000 # Monitoring sampling cycle - (default = 5000)
DRAM Timing Options:
nbk                                    16 # number of banks
CCD                                     4 # column to column delay
RRD                                    12 # minimal delay between activation of rows in different banks
RCD                                    24 # row to column delay
RAS                                    55 # time needed to activate row
RP                                     24 # time needed to precharge (deactivate) row
RC                                     78 # row cycle time
CDLR                                   10 # switching from write to read (changes tWTR)
WR                                     24 # last data-in to row precharge
CL                                     24 # CAS latency
WL                                      8 # Write latency
nbkgrp                                  4 # number of bank groups
CCDL                                    6 # column to column delay between accesses to different bank groups
RTPL                                    4 # read to precharge delay between accesses to different bank groups
Total number of memory sub partition = 24
addr_dec_mask[CHIP]  = 0000000000000000 	high:64 low:0
addr_dec_mask[BK]    = 0000000000007080 	high:15 low:7
addr_dec_mask[ROW]   = 000000000fff8000 	high:28 low:15
addr_dec_mask[COL]   = 0000000000000f7f 	high:12 low:0
addr_dec_mask[BURST] = 000000000000001f 	high:5 low:0
sub_partition_id_mask = 0000000000000080
GPGPU-Sim uArch: clock freqs: 1365000000.000000:1365000000.000000:1365000000.000000:3500500000.000000
GPGPU-Sim uArch: clock periods: 0.00000000073260073260:0.00000000073260073260:0.00000000073260073260:0.00000000028567347522
*** Initializing Memory Statistics ***
GPGPU-Sim uArch: performance model initialization complete.
self exe links to: /home/pars/Documents/sim_11/cc_afforest
self exe links to: /home/pars/Documents/sim_11/cc_afforest
11.0
GPGPU-Sim PTX: __cudaRegisterFatBinary, fat_cubin_handle = 1, filename=default
self exe links to: /home/pars/Documents/sim_11/cc_afforest
Running md5sum using "md5sum /home/pars/Documents/sim_11/cc_afforest "
self exe links to: /home/pars/Documents/sim_11/cc_afforest
Extracting specific PTX file named cc_afforest.1.sm_75.ptx 
GPGPU-Sim PTX: __cudaRegisterFunction _Z17afforest_directediiPKmPKiS0_S2_Pii : hostFun 0x0x5605694315b6, fat_cubin_handle = 1
GPGPU-Sim PTX: Parsing cc_afforest.1.sm_75.ptx
GPGPU-Sim PTX: instruction assembly for function '_Z8compressiPi'...   done.
GPGPU-Sim PTX: instruction assembly for function '_Z8afforestiPKmPKiPii'...   done.
GPGPU-Sim PTX: instruction assembly for function '_Z19afforest_undirectediiPKmPKiPii'...   done.
GPGPU-Sim PTX: instruction assembly for function '_Z17afforest_directediiPKmPKiS0_S2_Pii'...   done.
GPGPU-Sim PTX: finished parsing EMBEDDED .ptx file cc_afforest.1.sm_75.ptx
GPGPU-Sim PTX: loading globals with explicit initializers... 
GPGPU-Sim PTX: finished loading globals (0 bytes total).
GPGPU-Sim PTX: loading constants with explicit initializers...  done.
GPGPU-Sim PTX: Loading PTXInfo from cc_afforest.1.sm_75.ptx
GPGPU-Sim PTX: Kernel '_Z17afforest_directediiPKmPKiS0_S2_Pii' : regs=16, lmem=0, smem=0, cmem=404
GPGPU-Sim PTX: Kernel '_Z19afforest_undirectediiPKmPKiPii' : regs=16, lmem=0, smem=0, cmem=388
GPGPU-Sim PTX: Kernel '_Z8afforestiPKmPKiPii' : regs=12, lmem=0, smem=0, cmem=388
GPGPU-Sim PTX: Kernel '_Z8compressiPi' : regs=12, lmem=0, smem=0, cmem=368
GPGPU-Sim PTX: __cudaRegisterFunction _Z19afforest_undirectediiPKmPKiPii : hostFun 0x0x560569431382, fat_cubin_handle = 1
GPGPU-Sim PTX: __cudaRegisterFunction _Z8afforestiPKmPKiPii : hostFun 0x0x56056943119c, fat_cubin_handle = 1
GPGPU-Sim PTX: __cudaRegisterFunction _Z8compressiPi : hostFun 0x0x560569430ff7, fat_cubin_handle = 1
Connected Component by Xuhao Chen
Reading (.mtx) input file ../CudaBenchmarks/gardenia/datasets/higgs-twitter.mtx
Removing redundent edges... 4694812 redundent edges are removed
|V| 456626 |E| 25016826
This graph is symmetrized
Launching CUDA CC solver (1784 CTAs, 256 threads/CTA) ...
GPGPU-Sim PTX: Setting up arguments for 4 bytes starting at 0x7ffceb25237c..
GPGPU-Sim PTX: Setting up arguments for 8 bytes starting at 0x7ffceb252370..
GPGPU-Sim PTX: Setting up arguments for 8 bytes starting at 0x7ffceb252368..
GPGPU-Sim PTX: Setting up arguments for 8 bytes starting at 0x7ffceb252360..
GPGPU-Sim PTX: Setting up arguments for 4 bytes starting at 0x7ffceb252378..

GPGPU-Sim PTX: cudaLaunch for 0x0x56056943119c (mode=performance simulation) on stream 0
GPGPU-Sim PTX: finding reconvergence points for '_Z8afforestiPKmPKiPii'...
GPGPU-Sim PTX: Finding dominators for '_Z8afforestiPKmPKiPii'...
GPGPU-Sim PTX: Finding immediate dominators for '_Z8afforestiPKmPKiPii'...
GPGPU-Sim PTX: Finding postdominators for '_Z8afforestiPKmPKiPii'...
GPGPU-Sim PTX: Finding immediate postdominators for '_Z8afforestiPKmPKiPii'...
GPGPU-Sim PTX: pre-decoding instructions for '_Z8afforestiPKmPKiPii'...
GPGPU-Sim PTX: reconvergence points for _Z8afforestiPKmPKiPii...
GPGPU-Sim PTX:  1 (potential) branch divergence @  PC=0x120 (cc_afforest.1.sm_75.ptx:82) @%p1 bra $L__BB1_9;

GPGPU-Sim PTX:    immediate post dominator      @  PC=0x288 (cc_afforest.1.sm_75.ptx:138) ret;

GPGPU-Sim PTX:  2 (potential) branch divergence @  PC=0x170 (cc_afforest.1.sm_75.ptx:93) @%p2 bra $L__BB1_9;

GPGPU-Sim PTX:    immediate post dominator      @  PC=0x288 (cc_afforest.1.sm_75.ptx:138) ret;

GPGPU-Sim PTX:  3 (potential) branch divergence @  PC=0x1d0 (cc_afforest.1.sm_75.ptx:106) @%p3 bra $L__BB1_9;

GPGPU-Sim PTX:    immediate post dominator      @  PC=0x288 (cc_afforest.1.sm_75.ptx:138) ret;

GPGPU-Sim PTX:  4 (potential) branch divergence @  PC=0x210 (cc_afforest.1.sm_75.ptx:116) @%p4 bra $L__BB1_9;

GPGPU-Sim PTX:    immediate post dominator      @  PC=0x288 (cc_afforest.1.sm_75.ptx:138) ret;

GPGPU-Sim PTX:  5 (potential) branch divergence @  PC=0x220 (cc_afforest.1.sm_75.ptx:119) @%p5 bra $L__BB1_8;

GPGPU-Sim PTX:    immediate post dominator      @  PC=0x288 (cc_afforest.1.sm_75.ptx:138) ret;

GPGPU-Sim PTX:  6 (potential) branch divergence @  PC=0x238 (cc_afforest.1.sm_75.ptx:123) @%p6 bra $L__BB1_9;

GPGPU-Sim PTX:    immediate post dominator      @  PC=0x288 (cc_afforest.1.sm_75.ptx:138) ret;

GPGPU-Sim PTX:  7 (potential) branch divergence @  PC=0x280 (cc_afforest.1.sm_75.ptx:135) @%p7 bra $L__BB1_4;

GPGPU-Sim PTX:    immediate post dominator      @  PC=0x288 (cc_afforest.1.sm_75.ptx:138) ret;

GPGPU-Sim PTX: ... end of reconvergence points for _Z8afforestiPKmPKiPii
GPGPU-Sim PTX: ... done pre-decoding instructions for '_Z8afforestiPKmPKiPii'.
GPGPU-Sim PTX: pushing kernel '_Z8afforestiPKmPKiPii' to stream 0, gridDim= (1784,1,1) blockDim = (256,1,1) 
GPGPU-Sim uArch: Shader 0 bind to kernel 1 '_Z8afforestiPKmPKiPii'
GPGPU-Sim uArch: CTA/core = 4, limited by: threads
GPGPU-Sim: Reconfigure L1 cache to 64KB
GPGPU-Sim uArch: Shader 1 bind to kernel 1 '_Z8afforestiPKmPKiPii'
GPGPU-Sim uArch: Shader 2 bind to kernel 1 '_Z8afforestiPKmPKiPii'
GPGPU-Sim uArch: Shader 3 bind to kernel 1 '_Z8afforestiPKmPKiPii'
GPGPU-Sim uArch: Shader 4 bind to kernel 1 '_Z8afforestiPKmPKiPii'
GPGPU-Sim uArch: Shader 5 bind to kernel 1 '_Z8afforestiPKmPKiPii'
GPGPU-Sim uArch: Shader 6 bind to kernel 1 '_Z8afforestiPKmPKiPii'
GPGPU-Sim uArch: Shader 7 bind to kernel 1 '_Z8afforestiPKmPKiPii'
GPGPU-Sim uArch: Shader 8 bind to kernel 1 '_Z8afforestiPKmPKiPii'
GPGPU-Sim uArch: Shader 9 bind to kernel 1 '_Z8afforestiPKmPKiPii'
GPGPU-Sim uArch: Shader 10 bind to kernel 1 '_Z8afforestiPKmPKiPii'
GPGPU-Sim uArch: Shader 11 bind to kernel 1 '_Z8afforestiPKmPKiPii'
GPGPU-Sim uArch: Shader 12 bind to kernel 1 '_Z8afforestiPKmPKiPii'
GPGPU-Sim uArch: Shader 13 bind to kernel 1 '_Z8afforestiPKmPKiPii'
GPGPU-Sim uArch: Shader 14 bind to kernel 1 '_Z8afforestiPKmPKiPii'
GPGPU-Sim uArch: Shader 15 bind to kernel 1 '_Z8afforestiPKmPKiPii'
GPGPU-Sim uArch: Shader 16 bind to kernel 1 '_Z8afforestiPKmPKiPii'
GPGPU-Sim uArch: Shader 17 bind to kernel 1 '_Z8afforestiPKmPKiPii'
GPGPU-Sim uArch: Shader 18 bind to kernel 1 '_Z8afforestiPKmPKiPii'
GPGPU-Sim uArch: Shader 19 bind to kernel 1 '_Z8afforestiPKmPKiPii'
GPGPU-Sim uArch: Shader 20 bind to kernel 1 '_Z8afforestiPKmPKiPii'
GPGPU-Sim uArch: Shader 21 bind to kernel 1 '_Z8afforestiPKmPKiPii'
GPGPU-Sim uArch: Shader 22 bind to kernel 1 '_Z8afforestiPKmPKiPii'
GPGPU-Sim uArch: Shader 23 bind to kernel 1 '_Z8afforestiPKmPKiPii'
GPGPU-Sim uArch: Shader 24 bind to kernel 1 '_Z8afforestiPKmPKiPii'
GPGPU-Sim uArch: Shader 25 bind to kernel 1 '_Z8afforestiPKmPKiPii'
GPGPU-Sim uArch: Shader 26 bind to kernel 1 '_Z8afforestiPKmPKiPii'
GPGPU-Sim uArch: Shader 27 bind to kernel 1 '_Z8afforestiPKmPKiPii'
GPGPU-Sim uArch: Shader 28 bind to kernel 1 '_Z8afforestiPKmPKiPii'
GPGPU-Sim uArch: Shader 29 bind to kernel 1 '_Z8afforestiPKmPKiPii'
Destroy streams for kernel 1: size 0
kernel_name = _Z8afforestiPKmPKiPii 
kernel_launch_uid = 1 
gpu_sim_cycle = 105264
gpu_sim_insn = 19649190
gpu_ipc =     186.6658
gpu_tot_sim_cycle = 105264
gpu_tot_sim_insn = 19649190
gpu_tot_ipc =     186.6658
gpu_tot_issued_cta = 1784
gpu_occupancy = 86.5537% 
gpu_tot_occupancy = 86.5537% 
max_total_param_size = 0
gpu_stall_dramfull = 724068
gpu_stall_icnt2sh    = 0
partiton_level_parallism =       6.8181
partiton_level_parallism_total  =       6.8181
partiton_level_parallism_util =       7.3397
partiton_level_parallism_util_total  =       7.3397
L2_BW  =     297.8136 GB/Sec
L2_BW_total  =     297.8136 GB/Sec
gpu_total_sim_rate=20132

========= Core cache stats =========
L1I_cache:
	L1I_total_cache_accesses = 0
	L1I_total_cache_misses = 0
	L1I_total_cache_pending_hits = 0
	L1I_total_cache_reservation_fails = 0
L1D_cache:
	L1D_cache_core[0]: Access = 36363, Miss = 22317, Miss_rate = 0.614, Pending_hits = 4918, Reservation_fails = 105204
	L1D_cache_core[1]: Access = 35264, Miss = 21798, Miss_rate = 0.618, Pending_hits = 4861, Reservation_fails = 102148
	L1D_cache_core[2]: Access = 35656, Miss = 21961, Miss_rate = 0.616, Pending_hits = 4698, Reservation_fails = 112235
	L1D_cache_core[3]: Access = 35429, Miss = 21785, Miss_rate = 0.615, Pending_hits = 4654, Reservation_fails = 111296
	L1D_cache_core[4]: Access = 35911, Miss = 22212, Miss_rate = 0.619, Pending_hits = 4877, Reservation_fails = 110560
	L1D_cache_core[5]: Access = 35224, Miss = 21894, Miss_rate = 0.622, Pending_hits = 4766, Reservation_fails = 112067
	L1D_cache_core[6]: Access = 35509, Miss = 21947, Miss_rate = 0.618, Pending_hits = 4882, Reservation_fails = 106260
	L1D_cache_core[7]: Access = 36001, Miss = 22211, Miss_rate = 0.617, Pending_hits = 4750, Reservation_fails = 120014
	L1D_cache_core[8]: Access = 36364, Miss = 22299, Miss_rate = 0.613, Pending_hits = 4804, Reservation_fails = 108639
	L1D_cache_core[9]: Access = 35900, Miss = 22248, Miss_rate = 0.620, Pending_hits = 4747, Reservation_fails = 112871
	L1D_cache_core[10]: Access = 36632, Miss = 22587, Miss_rate = 0.617, Pending_hits = 4992, Reservation_fails = 104232
	L1D_cache_core[11]: Access = 34200, Miss = 21212, Miss_rate = 0.620, Pending_hits = 4709, Reservation_fails = 119539
	L1D_cache_core[12]: Access = 34708, Miss = 21505, Miss_rate = 0.620, Pending_hits = 4882, Reservation_fails = 112936
	L1D_cache_core[13]: Access = 36103, Miss = 22265, Miss_rate = 0.617, Pending_hits = 4819, Reservation_fails = 115984
	L1D_cache_core[14]: Access = 34624, Miss = 21452, Miss_rate = 0.620, Pending_hits = 4803, Reservation_fails = 117924
	L1D_cache_core[15]: Access = 35789, Miss = 22057, Miss_rate = 0.616, Pending_hits = 4824, Reservation_fails = 112570
	L1D_cache_core[16]: Access = 35900, Miss = 22107, Miss_rate = 0.616, Pending_hits = 4692, Reservation_fails = 111338
	L1D_cache_core[17]: Access = 34772, Miss = 21434, Miss_rate = 0.616, Pending_hits = 4655, Reservation_fails = 115826
	L1D_cache_core[18]: Access = 34060, Miss = 20985, Miss_rate = 0.616, Pending_hits = 4623, Reservation_fails = 123080
	L1D_cache_core[19]: Access = 35530, Miss = 21954, Miss_rate = 0.618, Pending_hits = 4626, Reservation_fails = 118707
	L1D_cache_core[20]: Access = 35299, Miss = 21785, Miss_rate = 0.617, Pending_hits = 4890, Reservation_fails = 118330
	L1D_cache_core[21]: Access = 35204, Miss = 21885, Miss_rate = 0.622, Pending_hits = 4915, Reservation_fails = 106432
	L1D_cache_core[22]: Access = 36049, Miss = 22095, Miss_rate = 0.613, Pending_hits = 4808, Reservation_fails = 110892
	L1D_cache_core[23]: Access = 36543, Miss = 22342, Miss_rate = 0.611, Pending_hits = 4732, Reservation_fails = 101069
	L1D_cache_core[24]: Access = 35905, Miss = 22110, Miss_rate = 0.616, Pending_hits = 4801, Reservation_fails = 118715
	L1D_cache_core[25]: Access = 34091, Miss = 21334, Miss_rate = 0.626, Pending_hits = 5026, Reservation_fails = 118878
	L1D_cache_core[26]: Access = 36073, Miss = 22196, Miss_rate = 0.615, Pending_hits = 4807, Reservation_fails = 112365
	L1D_cache_core[27]: Access = 36041, Miss = 22260, Miss_rate = 0.618, Pending_hits = 4811, Reservation_fails = 116573
	L1D_cache_core[28]: Access = 36431, Miss = 22400, Miss_rate = 0.615, Pending_hits = 4925, Reservation_fails = 115368
	L1D_cache_core[29]: Access = 36642, Miss = 22541, Miss_rate = 0.615, Pending_hits = 4810, Reservation_fails = 101299
	L1D_total_cache_accesses = 1068217
	L1D_total_cache_misses = 659178
	L1D_total_cache_miss_rate = 0.6171
	L1D_total_cache_pending_hits = 144107
	L1D_total_cache_reservation_fails = 3373351
	L1D_cache_data_port_util = 0.089
	L1D_cache_fill_port_util = 0.220
L1C_cache:
	L1C_total_cache_accesses = 0
	L1C_total_cache_misses = 0
	L1C_total_cache_pending_hits = 0
	L1C_total_cache_reservation_fails = 0
L1T_cache:
	L1T_total_cache_accesses = 0
	L1T_total_cache_misses = 0
	L1T_total_cache_pending_hits = 0
	L1T_total_cache_reservation_fails = 0

Total_core_cache_stats:
	Total_core_cache_stats_breakdown[GLOBAL_ACC_R][HIT] = 264932
	Total_core_cache_stats_breakdown[GLOBAL_ACC_R][HIT_RESERVED] = 144107
	Total_core_cache_stats_breakdown[GLOBAL_ACC_R][MISS] = 385711
	Total_core_cache_stats_breakdown[GLOBAL_ACC_R][RESERVATION_FAIL] = 3373351
	Total_core_cache_stats_breakdown[GLOBAL_ACC_R][SECTOR_MISS] = 273467
	Total_core_cache_stats_breakdown[GLOBAL_ACC_R][MSHR_HIT] = 144107
	Total_core_cache_stats_breakdown[LOCAL_ACC_R][HIT] = 0
	Total_core_cache_stats_breakdown[LOCAL_ACC_R][HIT_RESERVED] = 0
	Total_core_cache_stats_breakdown[LOCAL_ACC_R][MISS] = 0
	Total_core_cache_stats_breakdown[LOCAL_ACC_R][RESERVATION_FAIL] = 0
	Total_core_cache_stats_breakdown[LOCAL_ACC_R][SECTOR_MISS] = 0
	Total_core_cache_stats_breakdown[LOCAL_ACC_R][MSHR_HIT] = 0
	Total_core_cache_stats_breakdown[CONST_ACC_R][HIT] = 0
	Total_core_cache_stats_breakdown[CONST_ACC_R][HIT_RESERVED] = 0
	Total_core_cache_stats_breakdown[CONST_ACC_R][MISS] = 0
	Total_core_cache_stats_breakdown[CONST_ACC_R][RESERVATION_FAIL] = 0
	Total_core_cache_stats_breakdown[CONST_ACC_R][SECTOR_MISS] = 0
	Total_core_cache_stats_breakdown[CONST_ACC_R][MSHR_HIT] = 0
	Total_core_cache_stats_breakdown[TEXTURE_ACC_R][HIT] = 0
	Total_core_cache_stats_breakdown[TEXTURE_ACC_R][HIT_RESERVED] = 0
	Total_core_cache_stats_breakdown[TEXTURE_ACC_R][MISS] = 0
	Total_core_cache_stats_breakdown[TEXTURE_ACC_R][RESERVATION_FAIL] = 0
	Total_core_cache_stats_breakdown[TEXTURE_ACC_R][SECTOR_MISS] = 0
	Total_core_cache_stats_breakdown[TEXTURE_ACC_R][MSHR_HIT] = 0
	Total_core_cache_stats_breakdown[GLOBAL_ACC_W][HIT] = 0
	Total_core_cache_stats_breakdown[GLOBAL_ACC_W][HIT_RESERVED] = 0
	Total_core_cache_stats_breakdown[GLOBAL_ACC_W][MISS] = 0
	Total_core_cache_stats_breakdown[GLOBAL_ACC_W][RESERVATION_FAIL] = 0
	Total_core_cache_stats_breakdown[GLOBAL_ACC_W][SECTOR_MISS] = 0
	Total_core_cache_stats_breakdown[GLOBAL_ACC_W][MSHR_HIT] = 0
	Total_core_cache_stats_breakdown[LOCAL_ACC_W][HIT] = 0
	Total_core_cache_stats_breakdown[LOCAL_ACC_W][HIT_RESERVED] = 0
	Total_core_cache_stats_breakdown[LOCAL_ACC_W][MISS] = 0
	Total_core_cache_stats_breakdown[LOCAL_ACC_W][RESERVATION_FAIL] = 0
	Total_core_cache_stats_breakdown[LOCAL_ACC_W][SECTOR_MISS] = 0
	Total_core_cache_stats_breakdown[LOCAL_ACC_W][MSHR_HIT] = 0
	Total_core_cache_stats_breakdown[L1_WRBK_ACC][HIT] = 0
	Total_core_cache_stats_breakdown[L1_WRBK_ACC][HIT_RESERVED] = 0
	Total_core_cache_stats_breakdown[L1_WRBK_ACC][MISS] = 0
	Total_core_cache_stats_breakdown[L1_WRBK_ACC][RESERVATION_FAIL] = 0
	Total_core_cache_stats_breakdown[L1_WRBK_ACC][SECTOR_MISS] = 0
	Total_core_cache_stats_breakdown[L1_WRBK_ACC][MSHR_HIT] = 0
	Total_core_cache_stats_breakdown[L2_WRBK_ACC][HIT] = 0
	Total_core_cache_stats_breakdown[L2_WRBK_ACC][HIT_RESERVED] = 0
	Total_core_cache_stats_breakdown[L2_WRBK_ACC][MISS] = 0
	Total_core_cache_stats_breakdown[L2_WRBK_ACC][RESERVATION_FAIL] = 0
	Total_core_cache_stats_breakdown[L2_WRBK_ACC][SECTOR_MISS] = 0
	Total_core_cache_stats_breakdown[L2_WRBK_ACC][MSHR_HIT] = 0
	Total_core_cache_stats_breakdown[INST_ACC_R][HIT] = 0
	Total_core_cache_stats_breakdown[INST_ACC_R][HIT_RESERVED] = 0
	Total_core_cache_stats_breakdown[INST_ACC_R][MISS] = 0
	Total_core_cache_stats_breakdown[INST_ACC_R][RESERVATION_FAIL] = 0
	Total_core_cache_stats_breakdown[INST_ACC_R][SECTOR_MISS] = 0
	Total_core_cache_stats_breakdown[INST_ACC_R][MSHR_HIT] = 0
	Total_core_cache_stats_breakdown[L1_WR_ALLOC_R][HIT] = 0
	Total_core_cache_stats_breakdown[L1_WR_ALLOC_R][HIT_RESERVED] = 0
	Total_core_cache_stats_breakdown[L1_WR_ALLOC_R][MISS] = 0
	Total_core_cache_stats_breakdown[L1_WR_ALLOC_R][RESERVATION_FAIL] = 0
	Total_core_cache_stats_breakdown[L1_WR_ALLOC_R][SECTOR_MISS] = 0
	Total_core_cache_stats_breakdown[L1_WR_ALLOC_R][MSHR_HIT] = 0
	Total_core_cache_stats_breakdown[L2_WR_ALLOC_R][HIT] = 0
	Total_core_cache_stats_breakdown[L2_WR_ALLOC_R][HIT_RESERVED] = 0
	Total_core_cache_stats_breakdown[L2_WR_ALLOC_R][MISS] = 0
	Total_core_cache_stats_breakdown[L2_WR_ALLOC_R][RESERVATION_FAIL] = 0
	Total_core_cache_stats_breakdown[L2_WR_ALLOC_R][SECTOR_MISS] = 0
	Total_core_cache_stats_breakdown[L2_WR_ALLOC_R][MSHR_HIT] = 0
	Total_core_cache_stats_breakdown[GLOBAL_ACC_R][TOTAL_ACCESS] = 1068217

Total_core_cache_fail_stats:
	Total_core_cache_fail_stats_breakdown[GLOBAL_ACC_R][MISS_QUEUE_FULL] = 176487
	Total_core_cache_fail_stats_breakdown[GLOBAL_ACC_R][MSHR_ENRTY_FAIL] = 3196864
ctas_completed 1784, Shader 0 warp_id issue ditsribution:
warp_id:
0, 1, 2, 3, 4, 5, 6, 7, 8, 9, 10, 11, 12, 13, 14, 15, 16, 17, 18, 19, 20, 21, 22, 23, 24, 25, 26, 27, 28, 29, 30, 31, 
distro:
729, 720, 729, 751, 729, 741, 742, 742, 768, 790, 790, 799, 768, 768, 768, 812, 742, 720, 742, 742, 764, 742, 742, 741, 720, 742, 742, 720, 720, 742, 720, 720, 
gpgpu_n_tot_thrd_icount = 22400192
gpgpu_n_tot_w_icount = 700006
gpgpu_n_stall_shd_mem = 1379547
gpgpu_n_mem_read_local = 0
gpgpu_n_mem_write_local = 0
gpgpu_n_mem_read_global = 717698
gpgpu_n_mem_write_global = 0
gpgpu_n_mem_texture = 0
gpgpu_n_mem_const = 0
gpgpu_n_load_insn  = 3200092
gpgpu_n_store_insn = 0
gpgpu_n_shmem_insn = 0
gpgpu_n_sstarr_insn = 0
gpgpu_n_tex_insn = 0
gpgpu_n_const_mem_insn = 0
gpgpu_n_param_mem_insn = 2283520
gpgpu_n_shmem_bkconflict = 0
gpgpu_n_cache_bkconflict = 0
gpgpu_n_intrawarp_mshr_merge = 0
gpgpu_n_cmem_portconflict = 0
gpgpu_stall_shd_mem[c_mem][resource_stall] = 0
gpgpu_stall_shd_mem[s_mem][bk_conf] = 0
gpgpu_stall_shd_mem[gl_mem][resource_stall] = 1261871
gpgpu_stall_shd_mem[gl_mem][coal_stall] = 117676
gpgpu_stall_shd_mem[gl_mem][data_port_stall] = 0
gpu_reg_bank_conflict_stalls = 0
Warp Occupancy Distribution:
Stall:2139873	W0_Idle:71966	W0_Scoreboard:9058919	W1:14480	W2:518	W3:22	W4:0	W5:0	W6:0	W7:0	W8:0	W9:0	W10:0	W11:0	W12:0	W13:0	W14:0	W15:0	W16:0	W17:0	W18:35	W19:0	W20:0	W21:0	W22:0	W23:0	W24:0	W25:0	W26:0	W27:0	W28:0	W29:0	W30:0	W31:77	W32:684874
single_issue_nums: WS0:175009	WS1:175144	WS2:175001	WS3:174852	
dual_issue_nums: WS0:0	WS1:0	WS2:0	WS3:0	
traffic_breakdown_coretomem[GLOBAL_ACC_R] = 5273424 {8:659178,}
traffic_breakdown_coretomem[GLOBAL_ATOMIC] = 2340800 {40:58520,}
traffic_breakdown_memtocore[GLOBAL_ACC_R] = 26367120 {40:659178,}
traffic_breakdown_memtocore[GLOBAL_ATOMIC] = 2340800 {40:58520,}
maxmflatency = 4826 
max_icnt2mem_latency = 2828 
maxmrqlatency = 2177 
max_icnt2sh_latency = 116 
averagemflatency = 975 
avg_icnt2mem_latency = 207 
avg_mrq_latency = 123 
avg_icnt2sh_latency = 2 
mrq_lat_table:94729 	9153 	14369 	29514 	60463 	88381 	107531 	97670 	63587 	22073 	1673 	14 	0 	0 	0 	0 	0 	0 	0 	0 	0 	0 	0 	0 	0 	0 	0 	0 	0 	0 	0 	0 	
dq_lat_table:0 	0 	0 	0 	0 	0 	0 	0 	0 	0 	0 	0 	0 	0 	0 	0 	0 	0 	0 	0 	0 	0 	0 	0 	0 	0 	0 	0 	0 	0 	0 	0 	
mf_lat_table:0 	0 	0 	0 	0 	0 	0 	58623 	101913 	268762 	250466 	37719 	215 	0 	0 	0 	0 	0 	0 	0 	0 	0 	0 	0 	0 	0 	0 	0 	0 	0 	0 	0 	
icnt2mem_lat_table:0 	24255 	11315 	4746 	1970 	251833 	115586 	102214 	127443 	67356 	10570 	410 	0 	0 	0 	0 	0 	0 	0 	0 	0 	0 	0 	0 	
icnt2sh_lat_table:0 	656389 	51506 	6921 	1926 	817 	139 	0 	0 	0 	0 	0 	0 	0 	0 	0 	0 	0 	0 	0 	0 	0 	0 	0 	
mf_lat_pw_table:0 	0 	0 	0 	0 	0 	0 	0 	3 	60 	31 	6 	0 	0 	0 	0 	0 	0 	0 	0 	0 	0 	0 	0 	0 	0 	0 	0 	0 	0 	0 	0 	
maximum concurrent accesses to same row:
dram[0]:        64        64        59        64        64        64        48        48        64        64        60        63        59        64        64        64 
dram[1]:        64        64        60        64        64        64        48        48        64        64        60        64        53        64        64        64 
dram[2]:        64        64        64        64        64        64        52        52        64        60        61        62        52        60        64        64 
dram[3]:        64        64        54        64        64        64        52        52        48        64        60        64        64        64        64        64 
dram[4]:        64        64        63        58        64        64        52        52        47        60        60        58        52        60        64        64 
dram[5]:        64        64        64        63        64        64        52        52        61        64        63        59        59        52        64        64 
dram[6]:        64        64        64        64        64        64        52        52        64        64        58        61        52        60        64        64 
dram[7]:        64        64        64        64        64        64        52        52        52        64        64        61        52        64        64        64 
dram[8]:        64        64        62        64        64        64        52        52        64        64        59        60        64        60        64        64 
dram[9]:        64        64        59        64        63        64        52        52        64        64        64        64        59        64        64        64 
dram[10]:        64        64        64        64        64        64        52        52        64        64        64        64        64        52        64        64 
dram[11]:        64        64        64        63        64        64        52        52        60        60        60        63        52        56        64        64 
maximum service time to same row:
dram[0]:      5805      5804      6028      6036      6208      6219      6314      6324      6702      6696      6660      6655      5746      5745      5752      5751 
dram[1]:      5838      5848      5990      5989      6192      6192      6289      6289      6607      6642      6642      6606      5734      5703      5740      5709 
dram[2]:      5807      5806      5994      5965      6115      6081      6204      6190      6585      6590      6557      6588      5611      5580      5617      5586 
dram[3]:      5808      5808      5957      5918      6063      6197      6086      6298      6537      6578      6525      6557      5641      5642      5647      5649 
dram[4]:      5807      5807      6028      6036      6215      6222      6335      6340      6697      6698      6646      6663      5746      5745      5753      5753 
dram[5]:      5839      5850      5990      5990      6196      6183      6277      6277      6603      6630      6612      6628      5734      5703      5741      5710 
dram[6]:      5806      5806      6000      5969      6104      6067      6165      6105      6587      6586      6578      6571      5611      5580      5618      5587 
dram[7]:      5807      5806      5969      5915      6061      6180      6072      6241      6557      6571      6536      6600      5641      5642      5648      5648 
dram[8]:      5804      5804      6030      6039      6201      6211      6253      6262      6682      6666      6647      6652      5746      5745      5752      5751 
dram[9]:      5836      5848      5993      5992      6186      6160      6229      6231      6567      6588      6550      6582      5734      5703      5740      5709 
dram[10]:      5806      5806      5990      5966      6089      6080      6215      6158      6609      6601      6571      6576      5611      5580      5617      5586 
dram[11]:      5807      5806      5962      5915      6063      6197      6089      6314      6582      6607      6525      6575      5641      5641      5647      5648 
average row accesses per activate:
dram[0]:  3.243644  3.250260  3.316594  3.233546  3.137539  3.303371  3.070231  3.225322  3.094512  3.128931  3.235979  3.242004  3.576923  3.452643  3.273504  3.348013 
dram[1]:  3.491676  3.405348  3.295806  3.157025  3.235165  3.344318  3.143923  3.278867  3.154008  3.260450  3.213235  3.208205  3.356838  3.570628  3.195876  3.150451 
dram[2]:  3.218107  3.345377  3.205913  3.386192  3.082304  3.288764  3.337403  3.145661  3.173684  3.176594  3.234683  3.207900  3.371089  3.447567  3.406926  3.201245 
dram[3]:  3.327273  3.470133  3.350220  3.410897  3.224973  3.266085  3.036310  3.149733  3.139094  3.235931  3.261053  3.377380  3.424309  3.527174  3.195297  3.392199 
dram[4]:  3.342189  3.336126  3.433333  3.250000  3.276053  3.398190  3.118488  3.194681  3.067460  3.238919  3.260556  3.310566  3.298729  3.564424  3.281574  3.390374 
dram[5]:  3.240876  3.253807  3.184435  3.341758  3.257642  3.313616  3.236364  3.192060  3.158002  3.315847  3.308710  3.250261  3.380694  3.445513  3.259023  3.263104 
dram[6]:  3.272158  3.427332  3.279443  3.349781  3.303728  3.282468  3.302455  3.290948  3.140244  3.205696  3.106361  3.207668  3.281971  3.460455  3.303456  3.328026 
dram[7]:  3.332289  3.349947  3.230769  3.429058  3.234341  3.251917  3.176094  3.244373  3.320554  3.288793  3.138430  3.136461  3.354189  3.514607  3.439443  3.379787 
dram[8]:  3.360847  3.364807  3.348387  3.306277  3.268737  3.240561  3.174234  3.355408  3.172487  3.077568  3.125911  3.296296  3.269231  3.659698  3.204124  3.305032 
dram[9]:  3.162272  3.456616  3.270500  3.201264  3.171579  3.312222  3.227468  3.292026  3.065016  3.266667  3.040837  3.239869  3.267894  3.427351  3.183183  3.304531 
dram[10]:  3.449612  3.316509  3.284501  3.323497  3.343400  3.423788  3.261105  3.280624  3.272727  3.164038  3.331119  3.279781  3.506696  3.392553  3.154774  3.100406 
dram[11]:  3.376596  3.430155  3.242296  3.502844  3.297593  3.235551  3.219460  3.310887  3.270211  3.177730  3.246632  3.369730  3.431818  3.543237  3.369330  3.358672 
average row locality = 589157/179449 = 3.283144
number of total memory accesses made:
dram[0]:         0         0         0         0         0         0         0         0         0         0         0         0         0         0         0         0 
dram[1]:         0         0         0         0         0         0         0         0         0         0         0         0         0         0         0         0 
dram[2]:         0         0         0         0         0         0         0         0         0         0         0         0         0         0         0         0 
dram[3]:         0         0         0         0         0         0         0         0         0         0         0         0         0         0         0         0 
dram[4]:         0         0         0         0         0         0         0         0         0         0         0         0         0         0         0         0 
dram[5]:         0         0         0         0         0         0         0         0         0         0         0         0         0         0         0         0 
dram[6]:         0         0         0         0         0         0         0         0         0         0         0         0         0         0         0         0 
dram[7]:         0         0         0         0         0         0         0         0         0         0         0         0         0         0         0         0 
dram[8]:         0         0         0         0         0         0         0         0         0         0         0         0         0         0         0         0 
dram[9]:         0         0         0         0         0         0         0         0         0         0         0         0         0         0         0         0 
dram[10]:         0         0         0         0         0         0         0         0         0         0         0         0         0         0         0         0 
dram[11]:         0         0         0         0         0         0         0         0         0         0         0         0         0         0         0         0 
total accesses: 0
min_bank_accesses = 0!
min_chip_accesses = 0!
number of total read accesses:
dram[0]:      2998      3068      2975      2983      2972      2879      2877      2956      2993      2933      2996      2978      3191      3072      3001      3053 
dram[1]:      3084      3120      2923      2992      2883      2885      2900      2959      2939      2991      2995      3065      3079      3121      3036      3079 
dram[2]:      3064      3084      2973      3075      2935      2868      2955      2990      2961      2989      3054      3024      3061      3126      3086      3022 
dram[3]:      3047      3074      2981      2941      2935      2935      3041      2893      2928      2937      3035      2955      3035      3184      3062      3068 
dram[4]:      3081      3125      2924      2982      2894      2944      3001      2951      3039      2941      3104      3039      3050      3062      3106      3106 
dram[5]:      3044      3141      2925      2978      2924      2910      2977      2922      3043      2979      2938      3053      3054      3161      3006      3111 
dram[6]:      3074      3096      2999      2993      2951      2973      2907      3002      3037      2984      2916      2948      3068      3130      2998      3072 
dram[7]:      3126      3097      2920      2962      2939      2911      2923      2975      3065      2997      2977      2879      3099      3064      3146      3114 
dram[8]:      3112      3073      3052      2993      2993      2942      2952      2986      2945      2885      2942      3053      3081      3087      3044      3089 
dram[9]:      3056      3123      3009      2977      2953      2921      2955      3003      2916      2888      2990      2897      3132      3144      3116      3072 
dram[10]:      3054      3091      3033      2978      2933      2904      2957      2893      3008      2957      2945      2937      3078      3127      3075      2994 
dram[11]:      3112      3032      2988      3016      2954      2908      2926      2895      2901      2915      3069      3054      3107      3134      3057      3074 
total dram reads = 577638
bank skew: 3191/2868 = 1.11
chip skew: 48349/47925 = 1.01
number of total write accesses:
dram[0]:       256       248       252       252       248       244       208       200       208       208       248       252       256       252       252       256 
dram[1]:       248       256       252       256       244       232       196       204       204       204       256       252       252       256       256       248 
dram[2]:       256       256       252       256       244       236       208       220       216       204       244       248       256       252       248       256 
dram[3]:       256       252       244       256       244       240       212       208       204       212       252       244       256       244       252       252 
dram[4]:       256       244       252       240       244       240       208       208       212       220       248       252       256       256       256       256 
dram[5]:       256       256       248       252       240       236       196       212       220       220       252       256       252       256       256       256 
dram[6]:       256       256       256       248       248       240       208       208       212       220       252       256       252       256       244       252 
dram[7]:       252       248       248       236       224       232       212       208       212       220       244       252       256       256       252       252 
dram[8]:       256       252       248       248       240       248       216       216       212       204       248       248       256       256       256       256 
dram[9]:       248       256       248       244       240       240       212       208       216       208       252       244       256       256       256       256 
dram[10]:       244       252       244       252       224       244       212       212       208       208       252       256       256       248       256       252 
dram[11]:       248       248       252       252       240       236       208       220       208       212       256       252       256       248       252       252 
total dram writes = 46076
bank skew: 256/196 = 1.31
chip skew: 3864/3804 = 1.02
average mf latency per bank:
dram[0]:        875       890       884       853       883       873       874       860      1154      1029       906       905       920       903       929       948
dram[1]:        878       911       870       916       863       909       847       902      1101      1117       912       974       844       927       900       960
dram[2]:       1266      1207      1229      1229      1236      1190      1232      1198      1485      1574      1380      1308      1294      1234      1285      1263
dram[3]:       1008       975      1012       951      1004       958       999       936      1291      1153      1162      1127      1034      1007      1040      1006
dram[4]:       1417      1354      1367      1399      1371      1341      1371      1337      1893      2030      1647      1544      1390      1427      1461      1414
dram[5]:        963      1108       981      1121       971      1116       939      1079      1206      1481      1016      1125       965      1115       984      1130
dram[6]:        863       868       858       882       827       852       787       845      1000      1143       874       872       857       883       890       908
dram[7]:       1224      1070      1248      1060      1224      1066      1176      1041      1600      1412      1327      1138      1228      1084      1272      1122
dram[8]:       1135      1142      1123      1139      1098      1136      1090      1120      1500      1517      1252      1190      1115      1189      1131      1190
dram[9]:       1593      1302      1586      1313      1576      1299      1577      1302      2093      1897      1726      1452      1646      1333      1635      1359
dram[10]:        978       935       972       891       967       903       944       872      1256      1056      1032       914       960       880      1012       937
dram[11]:        925       907       873       881       884       858       873       834      1191      1086       913       892       895       873       984       902
maximum mf latency per bank:
dram[0]:       4233      3835      4279      4005      3611      3662      3740      3907      3644      3520      3999      3976      4501      4000      4113      4079
dram[1]:       3768      4147      3881      4548      3786      4198      3401      4408      3569      3905      3990      3882      3772      3789      3914      4198
dram[2]:       4826      4696      4758      4147      4477      4110      4016      4128      3996      4472      4067      4022      4247      3880      4430      4651
dram[3]:       4090      3677      3978      3832      4196      3809      3827      3856      4217      3704      4260      3957      4248      4219      4240      4227
dram[4]:       4235      4626      4352      4825      4013      4137      4067      4337      3936      4137      4508      4427      4319      3967      4505      4304
dram[5]:       4617      4015      3980      3899      3838      3653      3792      3918      3911      4098      4100      3835      3938      3942      3823      4167
dram[6]:       4391      3986      4166      4124      3751      4351      3761      4045      4235      4001      3772      4253      4096      4324      3761      3984
dram[7]:       3844      4111      3813      3852      3710      3880      3429      3753      3613      3793      3528      3752      3428      4134      3800      3862
dram[8]:       4610      4198      4052      4522      3798      4172      4148      4231      3452      4112      3870      4064      4095      4438      4120      4594
dram[9]:       3835      4161      3685      4425      3994      3867      3738      3743      4045      3587      3847      3966      4792      4117      3681      4587
dram[10]:       4246      3995      3953      3813      3817      4063      3816      3938      4028      3694      3577      4157      3685      4029      3923      4233
dram[11]:       3668      4375      3809      3743      3727      3840      3645      3866      3660      3850      3619      4344      4095      3650      4061      3684

Number of Memory Banks Accessed per Memory Operation per Warp (from 0):
0	0	0	0	0	0	0	0	0	0	0	0	0	0	0	0	0	0	0	0	0	0	0	0	0	0	0	0	0	0	0	0	0	0	0	0	0	0	0	0	0	0	0	0	0	0	0	0	0	0	0	0	0	0	0	0	0	0	0	0	0	0	0	0	0	0	0	0	0	0	0	0	0	0	0	0	0	0	0	0	0	0	0	0	0	0	0	0	0	0	0	0	0	0	0	0	0	0	0	0	0	0	0	0	0	0	0	0	0	0	0	0	0	0	0	0	0	0	0	0	0	0	0	0	0	0	0	0	0	0	0	0	0	0	0	0	0	0	0	0	0	0	0	0	0	0	0	0	0	0	0	0	0	0	0	0	0	0	0	0	0	0	0	0	0	0	0	0	0	0	0	0	0	0	0	0	0	0	0	0	0	0	0	0	0	0	0	0	0	0	0	0	
Average # of Memory Banks Accessed per Memory Operation per Warp=-nan

position of mrq chosen
0	0	0	0	0	0	0	0	0	0	0	0	0	0	0	0	0	0	0	0	0	0	0	0	0	0	0	0	0	0	0	0	0	0	0	0	0	0	0	0	0	0	0	0	0	0	0	0	0	0	0	0	0	0	0	0	0	0	0	0	0	0	0	0	

average position of mrq chosen = -nan
Memory Partition 0: 
Cache L2_bank_000:
MSHR contents

Cache L2_bank_001:
MSHR contents

In Dram Latency Queue (total = 0): 
DRAM[0]: 16 bks, busW=2 BL=16 CL=24, tRRD=12 tCCD=4, tRCD=24 tRAS=55 tRP=24 tRC=78
n_cmd=269944 n_nop=193478 n_act=15014 n_pre=14998 n_ref_event=0 n_req=48885 n_rd=47925 n_rd_L2_A=0 n_write=0 n_wr_bk=3840 bw_util=0.767
n_activity=251830 dram_eff=0.8222
bk0: 2998a 91434i bk1: 3068a 91858i bk2: 2975a 95550i bk3: 2983a 90130i bk4: 2972a 91234i bk5: 2879a 97534i bk6: 2877a 89973i bk7: 2956a 93028i bk8: 2993a 85642i bk9: 2933a 94419i bk10: 2996a 94866i bk11: 2978a 87313i bk12: 3191a 79563i bk13: 3072a 87341i bk14: 3001a 92900i bk15: 3053a 89404i 

------------------------------------------------------------------------

Row_Buffer_Locality = 0.692871
Row_Buffer_Locality_read = 0.696359
Row_Buffer_Locality_write = 0.518750
Bank_Level_Parallism = 11.635006
Bank_Level_Parallism_Col = 6.891502
Bank_Level_Parallism_Ready = 3.303579
write_to_read_ratio_blp_rw_average = 0.237473
GrpLevelPara = 3.467252 

BW Util details:
bwutil = 0.767048 
total_CMD = 269944 
util_bw = 207060 
Wasted_Col = 42987 
Wasted_Row = 728 
Idle = 19169 

BW Util Bottlenecks: 
RCDc_limit = 75470 
RCDWRc_limit = 647 
WTRc_limit = 26952 
RTWc_limit = 56683 
CCDLc_limit = 25017 
rwq = 0 
CCDLc_limit_alone = 17290 
WTRc_limit_alone = 24750 
RTWc_limit_alone = 51158 

Commands details: 
total_CMD = 269944 
n_nop = 193478 
Read = 47925 
Write = 0 
L2_Alloc = 0 
L2_WB = 3840 
n_act = 15014 
n_pre = 14998 
n_ref = 0 
n_req = 48885 
total_req = 51765 

Dual Bus Interface Util: 
issued_total_row = 30012 
issued_total_col = 51765 
Row_Bus_Util =  0.111179 
CoL_Bus_Util = 0.191762 
Either_Row_CoL_Bus_Util = 0.283266 
Issued_on_Two_Bus_Simul_Util = 0.019674 
issued_two_Eff = 0.069456 
queue_avg = 56.573689 


dram_util_bins: 0 0 0 0 0 0 0 0 0 0
dram_eff_bins: 0 0 0 0 0 0 0 0 0 0
mrqq: max=64 avg=56.5737
Memory Partition 1: 
Cache L2_bank_002:
MSHR contents

Cache L2_bank_003:
MSHR contents

In Dram Latency Queue (total = 0): 
DRAM[1]: 16 bks, busW=2 BL=16 CL=24, tRRD=12 tCCD=4, tRCD=24 tRAS=55 tRP=24 tRC=78
n_cmd=269944 n_nop=193143 n_act=14959 n_pre=14943 n_ref_event=0 n_req=49005 n_rd=48051 n_rd_L2_A=0 n_write=0 n_wr_bk=3816 bw_util=0.7686
n_activity=252220 dram_eff=0.8226
bk0: 3084a 96939i bk1: 3120a 91130i bk2: 2923a 95240i bk3: 2992a 91707i bk4: 2883a 97765i bk5: 2885a 99109i bk6: 2900a 99387i bk7: 2959a 96872i bk8: 2939a 90263i bk9: 2991a 89757i bk10: 2995a 85750i bk11: 3065a 88465i bk12: 3079a 92778i bk13: 3121a 86505i bk14: 3036a 92043i bk15: 3079a 88524i 

------------------------------------------------------------------------

Row_Buffer_Locality = 0.694745
Row_Buffer_Locality_read = 0.697967
Row_Buffer_Locality_write = 0.532495
Bank_Level_Parallism = 11.493844
Bank_Level_Parallism_Col = 1.000000
Bank_Level_Parallism_Ready = 3.174172
write_to_read_ratio_blp_rw_average = 0.000000
GrpLevelPara = 0.000000 

BW Util details:
bwutil = 0.768559 
total_CMD = 269944 
util_bw = 207468 
Wasted_Col = 43276 
Wasted_Row = 453 
Idle = 18747 

BW Util Bottlenecks: 
RCDc_limit = 75292 
RCDWRc_limit = 716 
WTRc_limit = 25122 
RTWc_limit = 56738 
CCDLc_limit = 25248 
rwq = 0 
CCDLc_limit_alone = 17678 
WTRc_limit_alone = 23170 
RTWc_limit_alone = 51120 

Commands details: 
total_CMD = 269944 
n_nop = 193143 
Read = 48051 
Write = 0 
L2_Alloc = 0 
L2_WB = 3816 
n_act = 14959 
n_pre = 14943 
n_ref = 0 
n_req = 49005 
total_req = 51867 

Dual Bus Interface Util: 
issued_total_row = 29902 
issued_total_col = 51867 
Row_Bus_Util =  0.110771 
CoL_Bus_Util = 0.192140 
Either_Row_CoL_Bus_Util = 0.284507 
Issued_on_Two_Bus_Simul_Util = 0.018404 
issued_two_Eff = 0.064687 
queue_avg = 56.905014 


dram_util_bins: 0 0 0 0 0 0 0 0 0 0
dram_eff_bins: 0 0 0 0 0 0 0 0 0 0
mrqq: max=64 avg=56.905
Memory Partition 2: 
Cache L2_bank_004:
MSHR contents

Cache L2_bank_005:
MSHR contents

In Dram Latency Queue (total = 0): 
DRAM[2]: 16 bks, busW=2 BL=16 CL=24, tRRD=12 tCCD=4, tRCD=24 tRAS=55 tRP=24 tRC=78
n_cmd=269944 n_nop=192800 n_act=15090 n_pre=15074 n_ref_event=0 n_req=49230 n_rd=48267 n_rd_L2_A=0 n_write=0 n_wr_bk=3852 bw_util=0.7723
n_activity=252717 dram_eff=0.8249
bk0: 3064a 90865i bk1: 3084a 92891i bk2: 2973a 90975i bk3: 3075a 89309i bk4: 2935a 93717i bk5: 2868a 99476i bk6: 2955a 98186i bk7: 2990a 88911i bk8: 2961a 93445i bk9: 2989a 91362i bk10: 3054a 83815i bk11: 3024a 87638i bk12: 3061a 84813i bk13: 3126a 83961i bk14: 3086a 89414i bk15: 3022a 82846i 

------------------------------------------------------------------------

Row_Buffer_Locality = 0.693480
Row_Buffer_Locality_read = 0.696729
Row_Buffer_Locality_write = 0.530633
Bank_Level_Parallism = 11.617884
Bank_Level_Parallism_Col = 6.861056
Bank_Level_Parallism_Ready = 3.294997
write_to_read_ratio_blp_rw_average = 0.229042
GrpLevelPara = 3.453659 

BW Util details:
bwutil = 0.772294 
total_CMD = 269944 
util_bw = 208476 
Wasted_Col = 43007 
Wasted_Row = 496 
Idle = 17965 

BW Util Bottlenecks: 
RCDc_limit = 76146 
RCDWRc_limit = 654 
WTRc_limit = 26951 
RTWc_limit = 57196 
CCDLc_limit = 25220 
rwq = 0 
CCDLc_limit_alone = 17164 
WTRc_limit_alone = 24690 
RTWc_limit_alone = 51401 

Commands details: 
total_CMD = 269944 
n_nop = 192800 
Read = 48267 
Write = 0 
L2_Alloc = 0 
L2_WB = 3852 
n_act = 15090 
n_pre = 15074 
n_ref = 0 
n_req = 49230 
total_req = 52119 

Dual Bus Interface Util: 
issued_total_row = 30164 
issued_total_col = 52119 
Row_Bus_Util =  0.111742 
CoL_Bus_Util = 0.193073 
Either_Row_CoL_Bus_Util = 0.285778 
Issued_on_Two_Bus_Simul_Util = 0.019037 
issued_two_Eff = 0.066616 
queue_avg = 58.377483 


dram_util_bins: 0 0 0 0 0 0 0 0 0 0
dram_eff_bins: 0 0 0 0 0 0 0 0 0 0
mrqq: max=64 avg=58.3775
Memory Partition 3: 
Cache L2_bank_006:
MSHR contents

Cache L2_bank_007:
MSHR contents

In Dram Latency Queue (total = 0): 
DRAM[3]: 16 bks, busW=2 BL=16 CL=24, tRRD=12 tCCD=4, tRCD=24 tRAS=55 tRP=24 tRC=78
n_cmd=269944 n_nop=193348 n_act=14870 n_pre=14854 n_ref_event=0 n_req=49008 n_rd=48051 n_rd_L2_A=0 n_write=0 n_wr_bk=3828 bw_util=0.7687
n_activity=251552 dram_eff=0.8249
bk0: 3047a 97928i bk1: 3074a 91312i bk2: 2981a 93788i bk3: 2941a 94960i bk4: 2935a 99377i bk5: 2935a 92067i bk6: 3041a 95952i bk7: 2893a 96879i bk8: 2928a 94658i bk9: 2937a 90438i bk10: 3035a 86651i bk11: 2955a 87816i bk12: 3035a 88751i bk13: 3184a 85545i bk14: 3062a 88088i bk15: 3068a 96255i 

------------------------------------------------------------------------

Row_Buffer_Locality = 0.696580
Row_Buffer_Locality_read = 0.699486
Row_Buffer_Locality_write = 0.550679
Bank_Level_Parallism = 11.516935
Bank_Level_Parallism_Col = 6.883302
Bank_Level_Parallism_Ready = 3.225418
write_to_read_ratio_blp_rw_average = 0.245352
GrpLevelPara = 3.491059 

BW Util details:
bwutil = 0.768737 
total_CMD = 269944 
util_bw = 207516 
Wasted_Col = 42891 
Wasted_Row = 393 
Idle = 19144 

BW Util Bottlenecks: 
RCDc_limit = 75928 
RCDWRc_limit = 619 
WTRc_limit = 25054 
RTWc_limit = 63711 
CCDLc_limit = 24884 
rwq = 0 
CCDLc_limit_alone = 16867 
WTRc_limit_alone = 23029 
RTWc_limit_alone = 57719 

Commands details: 
total_CMD = 269944 
n_nop = 193348 
Read = 48051 
Write = 0 
L2_Alloc = 0 
L2_WB = 3828 
n_act = 14870 
n_pre = 14854 
n_ref = 0 
n_req = 49008 
total_req = 51879 

Dual Bus Interface Util: 
issued_total_row = 29724 
issued_total_col = 51879 
Row_Bus_Util =  0.110112 
CoL_Bus_Util = 0.192184 
Either_Row_CoL_Bus_Util = 0.283748 
Issued_on_Two_Bus_Simul_Util = 0.018548 
issued_two_Eff = 0.065369 
queue_avg = 57.793056 


dram_util_bins: 0 0 0 0 0 0 0 0 0 0
dram_eff_bins: 0 0 0 0 0 0 0 0 0 0
mrqq: max=64 avg=57.7931
Memory Partition 4: 
Cache L2_bank_008:
MSHR contents

Cache L2_bank_009:
MSHR contents

In Dram Latency Queue (total = 0): 
DRAM[4]: 16 bks, busW=2 BL=16 CL=24, tRRD=12 tCCD=4, tRCD=24 tRAS=55 tRP=24 tRC=78
n_cmd=269944 n_nop=193124 n_act=14970 n_pre=14954 n_ref_event=0 n_req=49311 n_rd=48349 n_rd_L2_A=0 n_write=0 n_wr_bk=3848 bw_util=0.7734
n_activity=252479 dram_eff=0.827
bk0: 3081a 86650i bk1: 3125a 83380i bk2: 2924a 98890i bk3: 2982a 86767i bk4: 2894a 92177i bk5: 2944a 100033i bk6: 3001a 90316i bk7: 2951a 90321i bk8: 3039a 88722i bk9: 2941a 89348i bk10: 3104a 88207i bk11: 3039a 83966i bk12: 3050a 87543i bk13: 3062a 90016i bk14: 3106a 86141i bk15: 3106a 92738i 

------------------------------------------------------------------------

Row_Buffer_Locality = 0.696417
Row_Buffer_Locality_read = 0.699332
Row_Buffer_Locality_write = 0.549896
Bank_Level_Parallism = 11.647385
Bank_Level_Parallism_Col = 6.900691
Bank_Level_Parallism_Ready = 3.270676
write_to_read_ratio_blp_rw_average = 0.240151
GrpLevelPara = 3.471980 

BW Util details:
bwutil = 0.773449 
total_CMD = 269944 
util_bw = 208788 
Wasted_Col = 42846 
Wasted_Row = 213 
Idle = 18097 

BW Util Bottlenecks: 
RCDc_limit = 76672 
RCDWRc_limit = 508 
WTRc_limit = 24291 
RTWc_limit = 60269 
CCDLc_limit = 24945 
rwq = 0 
CCDLc_limit_alone = 17264 
WTRc_limit_alone = 22436 
RTWc_limit_alone = 54443 

Commands details: 
total_CMD = 269944 
n_nop = 193124 
Read = 48349 
Write = 0 
L2_Alloc = 0 
L2_WB = 3848 
n_act = 14970 
n_pre = 14954 
n_ref = 0 
n_req = 49311 
total_req = 52197 

Dual Bus Interface Util: 
issued_total_row = 29924 
issued_total_col = 52197 
Row_Bus_Util =  0.110853 
CoL_Bus_Util = 0.193362 
Either_Row_CoL_Bus_Util = 0.284578 
Issued_on_Two_Bus_Simul_Util = 0.019637 
issued_two_Eff = 0.069005 
queue_avg = 58.840767 


dram_util_bins: 0 0 0 0 0 0 0 0 0 0
dram_eff_bins: 0 0 0 0 0 0 0 0 0 0
mrqq: max=64 avg=58.8408
Memory Partition 5: 
Cache L2_bank_010:
MSHR contents

Cache L2_bank_011:
MSHR contents

In Dram Latency Queue (total = 0): 
DRAM[5]: 16 bks, busW=2 BL=16 CL=24, tRRD=12 tCCD=4, tRCD=24 tRAS=55 tRP=24 tRC=78
n_cmd=269944 n_nop=193382 n_act=15006 n_pre=14990 n_ref_event=0 n_req=49132 n_rd=48166 n_rd_L2_A=0 n_write=0 n_wr_bk=3864 bw_util=0.771
n_activity=251369 dram_eff=0.8279
bk0: 3044a 92337i bk1: 3141a 86318i bk2: 2925a 91864i bk3: 2978a 92060i bk4: 2924a 90459i bk5: 2910a 100752i bk6: 2977a 95198i bk7: 2922a 97299i bk8: 3043a 84228i bk9: 2979a 83270i bk10: 2938a 90947i bk11: 3053a 85384i bk12: 3054a 89381i bk13: 3161a 85664i bk14: 3006a 90327i bk15: 3111a 85524i 

------------------------------------------------------------------------

Row_Buffer_Locality = 0.694578
Row_Buffer_Locality_read = 0.697878
Row_Buffer_Locality_write = 0.530021
Bank_Level_Parallism = 11.682042
Bank_Level_Parallism_Col = 6.877487
Bank_Level_Parallism_Ready = 3.284098
write_to_read_ratio_blp_rw_average = 0.228808
GrpLevelPara = 3.460509 

BW Util details:
bwutil = 0.770975 
total_CMD = 269944 
util_bw = 208120 
Wasted_Col = 42077 
Wasted_Row = 372 
Idle = 19375 

BW Util Bottlenecks: 
RCDc_limit = 74625 
RCDWRc_limit = 641 
WTRc_limit = 26149 
RTWc_limit = 54123 
CCDLc_limit = 24268 
rwq = 0 
CCDLc_limit_alone = 16775 
WTRc_limit_alone = 23977 
RTWc_limit_alone = 48802 

Commands details: 
total_CMD = 269944 
n_nop = 193382 
Read = 48166 
Write = 0 
L2_Alloc = 0 
L2_WB = 3864 
n_act = 15006 
n_pre = 14990 
n_ref = 0 
n_req = 49132 
total_req = 52030 

Dual Bus Interface Util: 
issued_total_row = 29996 
issued_total_col = 52030 
Row_Bus_Util =  0.111119 
CoL_Bus_Util = 0.192744 
Either_Row_CoL_Bus_Util = 0.283622 
Issued_on_Two_Bus_Simul_Util = 0.020241 
issued_two_Eff = 0.071367 
queue_avg = 57.715900 


dram_util_bins: 0 0 0 0 0 0 0 0 0 0
dram_eff_bins: 0 0 0 0 0 0 0 0 0 0
mrqq: max=64 avg=57.7159
Memory Partition 6: 
Cache L2_bank_012:
MSHR contents

Cache L2_bank_013:
MSHR contents

In Dram Latency Queue (total = 0): 
DRAM[6]: 16 bks, busW=2 BL=16 CL=24, tRRD=12 tCCD=4, tRCD=24 tRAS=55 tRP=24 tRC=78
n_cmd=269944 n_nop=193406 n_act=14962 n_pre=14946 n_ref_event=0 n_req=49114 n_rd=48148 n_rd_L2_A=0 n_write=0 n_wr_bk=3864 bw_util=0.7707
n_activity=252002 dram_eff=0.8256
bk0: 3074a 87944i bk1: 3096a 93865i bk2: 2999a 95455i bk3: 2993a 95120i bk4: 2951a 94067i bk5: 2973a 96643i bk6: 2907a 101891i bk7: 3002a 87397i bk8: 3037a 88333i bk9: 2984a 87331i bk10: 2916a 95366i bk11: 2948a 92639i bk12: 3068a 88951i bk13: 3130a 88992i bk14: 2998a 92816i bk15: 3072a 90630i 

------------------------------------------------------------------------

Row_Buffer_Locality = 0.695362
Row_Buffer_Locality_read = 0.698534
Row_Buffer_Locality_write = 0.537267
Bank_Level_Parallism = 11.515111
Bank_Level_Parallism_Col = 6.745844
Bank_Level_Parallism_Ready = 3.200334
write_to_read_ratio_blp_rw_average = 0.232635
GrpLevelPara = 3.455540 

BW Util details:
bwutil = 0.770708 
total_CMD = 269944 
util_bw = 208048 
Wasted_Col = 42694 
Wasted_Row = 376 
Idle = 18826 

BW Util Bottlenecks: 
RCDc_limit = 74912 
RCDWRc_limit = 661 
WTRc_limit = 27644 
RTWc_limit = 55870 
CCDLc_limit = 26020 
rwq = 0 
CCDLc_limit_alone = 17833 
WTRc_limit_alone = 25245 
RTWc_limit_alone = 50082 

Commands details: 
total_CMD = 269944 
n_nop = 193406 
Read = 48148 
Write = 0 
L2_Alloc = 0 
L2_WB = 3864 
n_act = 14962 
n_pre = 14946 
n_ref = 0 
n_req = 49114 
total_req = 52012 

Dual Bus Interface Util: 
issued_total_row = 29908 
issued_total_col = 52012 
Row_Bus_Util =  0.110793 
CoL_Bus_Util = 0.192677 
Either_Row_CoL_Bus_Util = 0.283533 
Issued_on_Two_Bus_Simul_Util = 0.019937 
issued_two_Eff = 0.070318 
queue_avg = 56.471436 


dram_util_bins: 0 0 0 0 0 0 0 0 0 0
dram_eff_bins: 0 0 0 0 0 0 0 0 0 0
mrqq: max=64 avg=56.4714
Memory Partition 7: 
Cache L2_bank_014:
MSHR contents

Cache L2_bank_015:
MSHR contents

In Dram Latency Queue (total = 0): 
DRAM[7]: 16 bks, busW=2 BL=16 CL=24, tRRD=12 tCCD=4, tRCD=24 tRAS=55 tRP=24 tRC=78
n_cmd=269944 n_nop=193313 n_act=14892 n_pre=14876 n_ref_event=0 n_req=49145 n_rd=48194 n_rd_L2_A=0 n_write=0 n_wr_bk=3804 bw_util=0.7705
n_activity=251716 dram_eff=0.8263
bk0: 3126a 87570i bk1: 3097a 84257i bk2: 2920a 87405i bk3: 2962a 94054i bk4: 2939a 97518i bk5: 2911a 98446i bk6: 2923a 96743i bk7: 2975a 92660i bk8: 3065a 89243i bk9: 2997a 87915i bk10: 2977a 86586i bk11: 2879a 90883i bk12: 3099a 86759i bk13: 3064a 85888i bk14: 3146a 85381i bk15: 3114a 87544i 

------------------------------------------------------------------------

Row_Buffer_Locality = 0.696978
Row_Buffer_Locality_read = 0.700627
Row_Buffer_Locality_write = 0.512093
Bank_Level_Parallism = 11.677396
Bank_Level_Parallism_Col = 6.928330
Bank_Level_Parallism_Ready = 3.281430
write_to_read_ratio_blp_rw_average = 0.240813
GrpLevelPara = 3.483521 

BW Util details:
bwutil = 0.770501 
total_CMD = 269944 
util_bw = 207992 
Wasted_Col = 42443 
Wasted_Row = 454 
Idle = 19055 

BW Util Bottlenecks: 
RCDc_limit = 74998 
[...]

------------------------------------------------------------------------

Row_Buffer_Locality = 0.711912
Row_Buffer_Locality_read = 0.717947
Row_Buffer_Locality_write = 0.428248
Bank_Level_Parallism = 10.856891
Bank_Level_Parallism_Col = 6.256661
Bank_Level_Parallism_Ready = 3.261742
write_to_read_ratio_blp_rw_average = 0.152171
GrpLevelPara = 3.275645 

BW Util details:
bwutil = 0.650865 
total_CMD = 692340 
util_bw = 450620 
Wasted_Col = 84021 
Wasted_Row = 2271 
Idle = 155428 

BW Util Bottlenecks: 
RCDc_limit = 137945 
RCDWRc_limit = 3368 
WTRc_limit = 65383 
RTWc_limit = 77557 
CCDLc_limit = 50217 
rwq = 0 
CCDLc_limit_alone = 37848 
WTRc_limit_alone = 60165 
RTWc_limit_alone = 70406 

Commands details: 
total_CMD = 692340 
n_nop = 529016 
Read = 103828 
Write = 0 
L2_Alloc = 0 
L2_WB = 8827 
n_act = 30548 
n_pre = 30532 
n_ref = 0 
n_req = 106037 
total_req = 112655 

Dual Bus Interface Util: 
issued_total_row = 61080 
issued_total_col = 112655 
Row_Bus_Util =  0.088223 
CoL_Bus_Util = 0.162716 
Either_Row_CoL_Bus_Util = 0.235901 
Issued_on_Two_Bus_Simul_Util = 0.015037 
issued_two_Eff = 0.063744 
queue_avg = 42.453350 


dram_util_bins: 0 0 0 0 0 0 0 0 0 0
dram_eff_bins: 0 0 0 0 0 0 0 0 0 0
mrqq: max=64 avg=42.4534
Memory Partition 7: 
Cache L2_bank_014:
MSHR contents

Cache L2_bank_015:
MSHR contents

In Dram Latency Queue (total = 0): 
DRAM[7]: 16 bks, busW=2 BL=16 CL=24, tRRD=12 tCCD=4, tRCD=24 tRAS=55 tRP=24 tRC=78
n_cmd=692340 n_nop=528356 n_act=30749 n_pre=30733 n_ref_event=0 n_req=106259 n_rd=104065 n_rd_L2_A=0 n_write=0 n_wr_bk=8764 bw_util=0.6519
n_activity=544761 dram_eff=0.8285
bk0: 6734a 318777i bk1: 6702a 317420i bk2: 6353a 324153i bk3: 6445a 332047i bk4: 6325a 340893i bk5: 6317a 343579i bk6: 6334a 342086i bk7: 6422a 336123i bk8: 6621a 323901i bk9: 6455a 321595i bk10: 6384a 321496i bk11: 6219a 325586i bk12: 6689a 318552i bk13: 6549a 319727i bk14: 6795a 321013i bk15: 6721a 320341i 

------------------------------------------------------------------------

Row_Buffer_Locality = 0.710622
Row_Buffer_Locality_read = 0.717081
Row_Buffer_Locality_write = 0.404284
Bank_Level_Parallism = 11.123672
Bank_Level_Parallism_Col = 6.486614
Bank_Level_Parallism_Ready = 3.387558
write_to_read_ratio_blp_rw_average = 0.163474
GrpLevelPara = 3.325754 

BW Util details:
bwutil = 0.651870 
total_CMD = 692340 
util_bw = 451316 
Wasted_Col = 84293 
Wasted_Row = 2148 
Idle = 154583 

BW Util Bottlenecks: 
RCDc_limit = 140303 
RCDWRc_limit = 3590 
WTRc_limit = 63229 
RTWc_limit = 90051 
CCDLc_limit = 48653 
rwq = 0 
CCDLc_limit_alone = 36152 
WTRc_limit_alone = 58426 
RTWc_limit_alone = 82353 

Commands details: 
total_CMD = 692340 
n_nop = 528356 
Read = 104065 
Write = 0 
L2_Alloc = 0 
L2_WB = 8764 
n_act = 30749 
n_pre = 30733 
n_ref = 0 
n_req = 106259 
total_req = 112829 

Dual Bus Interface Util: 
issued_total_row = 61482 
issued_total_col = 112829 
Row_Bus_Util =  0.088803 
CoL_Bus_Util = 0.162968 
Either_Row_CoL_Bus_Util = 0.236855 
Issued_on_Two_Bus_Simul_Util = 0.014916 
issued_two_Eff = 0.062976 
queue_avg = 45.848789 


dram_util_bins: 0 0 0 0 0 0 0 0 0 0
dram_eff_bins: 0 0 0 0 0 0 0 0 0 0
mrqq: max=64 avg=45.8488
Memory Partition 8: 
Cache L2_bank_016:
MSHR contents

Cache L2_bank_017:
MSHR contents

In Dram Latency Queue (total = 0): 
DRAM[8]: 16 bks, busW=2 BL=16 CL=24, tRRD=12 tCCD=4, tRCD=24 tRAS=55 tRP=24 tRC=78
n_cmd=692340 n_nop=528649 n_act=30624 n_pre=30608 n_ref_event=0 n_req=106156 n_rd=103951 n_rd_L2_A=0 n_write=0 n_wr_bk=8799 bw_util=0.6514
n_activity=544206 dram_eff=0.8287
bk0: 6704a 333406i bk1: 6606a 334426i bk2: 6560a 337569i bk3: 6489a 333419i bk4: 6434a 333471i bk5: 6385a 338453i bk6: 6386a 339659i bk7: 6470a 332761i bk8: 6334a 338752i bk9: 6225a 342260i bk10: 6333a 338526i bk11: 6578a 330097i bk12: 6582a 331998i bk13: 6622a 323063i bk14: 6578a 327541i bk15: 6665a 320758i 

------------------------------------------------------------------------

Row_Buffer_Locality = 0.711519
Row_Buffer_Locality_read = 0.717819
Row_Buffer_Locality_write = 0.414512
Bank_Level_Parallism = 10.934413
Bank_Level_Parallism_Col = 6.276128
Bank_Level_Parallism_Ready = 3.267459
write_to_read_ratio_blp_rw_average = 0.149039
GrpLevelPara = 3.274232 

BW Util details:
bwutil = 0.651414 
total_CMD = 692340 
util_bw = 451000 
Wasted_Col = 83517 
Wasted_Row = 2611 
Idle = 155212 

BW Util Bottlenecks: 
RCDc_limit = 136831 
RCDWRc_limit = 3317 
WTRc_limit = 64881 
RTWc_limit = 75216 
CCDLc_limit = 49205 
rwq = 0 
CCDLc_limit_alone = 37290 
WTRc_limit_alone = 59601 
RTWc_limit_alone = 68581 

Commands details: 
total_CMD = 692340 
n_nop = 528649 
Read = 103951 
Write = 0 
L2_Alloc = 0 
L2_WB = 8799 
n_act = 30624 
n_pre = 30608 
n_ref = 0 
n_req = 106156 
total_req = 112750 

Dual Bus Interface Util: 
issued_total_row = 61232 
issued_total_col = 112750 
Row_Bus_Util =  0.088442 
CoL_Bus_Util = 0.162854 
Either_Row_CoL_Bus_Util = 0.236432 
Issued_on_Two_Bus_Simul_Util = 0.014864 
issued_two_Eff = 0.062868 
queue_avg = 43.563717 


dram_util_bins: 0 0 0 0 0 0 0 0 0 0
dram_eff_bins: 0 0 0 0 0 0 0 0 0 0
mrqq: max=64 avg=43.5637
Memory Partition 9: 
Cache L2_bank_018:
MSHR contents

Cache L2_bank_019:
MSHR contents

In Dram Latency Queue (total = 0): 
DRAM[9]: 16 bks, busW=2 BL=16 CL=24, tRRD=12 tCCD=4, tRCD=24 tRAS=55 tRP=24 tRC=78
n_cmd=692340 n_nop=528531 n_act=30892 n_pre=30876 n_ref_event=0 n_req=106209 n_rd=104012 n_rd_L2_A=0 n_write=0 n_wr_bk=8787 bw_util=0.6517
n_activity=545444 dram_eff=0.8272
bk0: 6605a 328715i bk1: 6750a 329092i bk2: 6508a 334650i bk3: 6481a 339252i bk4: 6387a 344006i bk5: 6333a 343562i bk6: 6426a 345320i bk7: 6495a 341181i bk8: 6310a 340805i bk9: 6220a 338023i bk10: 6415a 334917i bk11: 6299a 335421i bk12: 6701a 310039i bk13: 6746a 318746i bk14: 6695a 326240i bk15: 6641a 318502i 

------------------------------------------------------------------------

Row_Buffer_Locality = 0.709140
Row_Buffer_Locality_read = 0.715283
Row_Buffer_Locality_write = 0.418298
Bank_Level_Parallism = 10.923212
Bank_Level_Parallism_Col = 6.237888
Bank_Level_Parallism_Ready = 3.217652
write_to_read_ratio_blp_rw_average = 0.147265
GrpLevelPara = 3.266960 

BW Util details:
bwutil = 0.651697 
total_CMD = 692340 
util_bw = 451196 
Wasted_Col = 84955 
Wasted_Row = 2218 
Idle = 153971 

BW Util Bottlenecks: 
RCDc_limit = 139861 
RCDWRc_limit = 3492 
WTRc_limit = 68016 
RTWc_limit = 76269 
CCDLc_limit = 51970 
rwq = 0 
CCDLc_limit_alone = 39279 
WTRc_limit_alone = 62154 
RTWc_limit_alone = 69440 

Commands details: 
total_CMD = 692340 
n_nop = 528531 
Read = 104012 
Write = 0 
L2_Alloc = 0 
L2_WB = 8787 
n_act = 30892 
n_pre = 30876 
n_ref = 0 
n_req = 106209 
total_req = 112799 

Dual Bus Interface Util: 
issued_total_row = 61768 
issued_total_col = 112799 
Row_Bus_Util =  0.089216 
CoL_Bus_Util = 0.162924 
Either_Row_CoL_Bus_Util = 0.236602 
Issued_on_Two_Bus_Simul_Util = 0.015539 
issued_two_Eff = 0.065674 
queue_avg = 43.407963 


dram_util_bins: 0 0 0 0 0 0 0 0 0 0
dram_eff_bins: 0 0 0 0 0 0 0 0 0 0
mrqq: max=64 avg=43.408
Memory Partition 10: 
Cache L2_bank_020:
MSHR contents

Cache L2_bank_021:
MSHR contents

In Dram Latency Queue (total = 0): 
DRAM[10]: 16 bks, busW=2 BL=16 CL=24, tRRD=12 tCCD=4, tRCD=24 tRAS=55 tRP=24 tRC=78
n_cmd=692340 n_nop=528280 n_act=30443 n_pre=30427 n_ref_event=0 n_req=105937 n_rd=103736 n_rd_L2_A=0 n_write=0 n_wr_bk=8794 bw_util=0.6501
n_activity=544686 dram_eff=0.8264
bk0: 6632a 340759i bk1: 6645a 338146i bk2: 6549a 342989i bk3: 6457a 338225i bk4: 6354a 346452i bk5: 6313a 350447i bk6: 6390a 345984i bk7: 6285a 340294i bk8: 6484a 337222i bk9: 6387a 344656i bk10: 6385a 338332i bk11: 6353a 331696i bk12: 6693a 336864i bk13: 6665a 330220i bk14: 6635a 331752i bk15: 6509a 327545i 

------------------------------------------------------------------------

Row_Buffer_Locality = 0.712631
Row_Buffer_Locality_read = 0.718950
Row_Buffer_Locality_write = 0.414811
Bank_Level_Parallism = 10.770255
Bank_Level_Parallism_Col = 6.213840
Bank_Level_Parallism_Ready = 3.233851
write_to_read_ratio_blp_rw_average = 0.150907
GrpLevelPara = 3.277380 

BW Util details:
bwutil = 0.650143 
total_CMD = 692340 
util_bw = 450120 
Wasted_Col = 83853 
Wasted_Row = 3248 
Idle = 155119 

BW Util Bottlenecks: 
RCDc_limit = 135474 
RCDWRc_limit = 3221 
WTRc_limit = 61791 
RTWc_limit = 80782 
CCDLc_limit = 48444 
rwq = 0 
CCDLc_limit_alone = 36234 
WTRc_limit_alone = 56927 
RTWc_limit_alone = 73436 

Commands details: 
total_CMD = 692340 
n_nop = 528280 
Read = 103736 
Write = 0 
L2_Alloc = 0 
L2_WB = 8794 
n_act = 30443 
n_pre = 30427 
n_ref = 0 
n_req = 105937 
total_req = 112530 

Dual Bus Interface Util: 
issued_total_row = 60870 
issued_total_col = 112530 
Row_Bus_Util =  0.087919 
CoL_Bus_Util = 0.162536 
Either_Row_CoL_Bus_Util = 0.236964 
Issued_on_Two_Bus_Simul_Util = 0.013490 
issued_two_Eff = 0.056930 
queue_avg = 41.297863 


dram_util_bins: 0 0 0 0 0 0 0 0 0 0
dram_eff_bins: 0 0 0 0 0 0 0 0 0 0
mrqq: max=64 avg=41.2979
Memory Partition 11: 
Cache L2_bank_022:
MSHR contents

Cache L2_bank_023:
MSHR contents

In Dram Latency Queue (total = 0): 
DRAM[11]: 16 bks, busW=2 BL=16 CL=24, tRRD=12 tCCD=4, tRCD=24 tRAS=55 tRP=24 tRC=78
n_cmd=692340 n_nop=529385 n_act=30206 n_pre=30190 n_ref_event=0 n_req=106218 n_rd=104018 n_rd_L2_A=0 n_write=0 n_wr_bk=8780 bw_util=0.6517
n_activity=544532 dram_eff=0.8286
bk0: 6722a 330812i bk1: 6564a 332938i bk2: 6484a 337475i bk3: 6514a 342063i bk4: 6391a 345048i bk5: 6317a 341105i bk6: 6312a 349831i bk7: 6299a 348863i bk8: 6285a 345058i bk9: 6301a 342364i bk10: 6660a 330092i bk11: 6582a 325189i bk12: 6690a 326404i bk13: 6699a 320656i bk14: 6573a 327087i bk15: 6625a 333142i 

------------------------------------------------------------------------

Row_Buffer_Locality = 0.715623
Row_Buffer_Locality_read = 0.721664
Row_Buffer_Locality_write = 0.430000
Bank_Level_Parallism = 10.854291
Bank_Level_Parallism_Col = 6.330769
Bank_Level_Parallism_Ready = 3.310938
write_to_read_ratio_blp_rw_average = 0.152437
GrpLevelPara = 3.290383 

BW Util details:
bwutil = 0.651691 
total_CMD = 692340 
util_bw = 451192 
Wasted_Col = 83152 
Wasted_Row = 2887 
Idle = 155109 

BW Util Bottlenecks: 
RCDc_limit = 135181 
RCDWRc_limit = 3323 
WTRc_limit = 63620 
RTWc_limit = 78140 
CCDLc_limit = 49715 
rwq = 0 
CCDLc_limit_alone = 37323 
WTRc_limit_alone = 58355 
RTWc_limit_alone = 71013 

Commands details: 
total_CMD = 692340 
n_nop = 529385 
Read = 104018 
Write = 0 
L2_Alloc = 0 
L2_WB = 8780 
n_act = 30206 
n_pre = 30190 
n_ref = 0 
n_req = 106218 
total_req = 112798 

Dual Bus Interface Util: 
issued_total_row = 60396 
issued_total_col = 112798 
Row_Bus_Util =  0.087235 
CoL_Bus_Util = 0.162923 
Either_Row_CoL_Bus_Util = 0.235368 
Issued_on_Two_Bus_Simul_Util = 0.014789 
issued_two_Eff = 0.062833 
queue_avg = 43.479656 


dram_util_bins: 0 0 0 0 0 0 0 0 0 0
dram_eff_bins: 0 0 0 0 0 0 0 0 0 0
mrqq: max=64 avg=43.4797

========= L2 cache stats =========
L2_cache_bank[0]: Access = 72153, Miss = 51895, Miss_rate = 0.719, Pending_hits = 116, Reservation_fails = 1512
L2_cache_bank[1]: Access = 69135, Miss = 51656, Miss_rate = 0.747, Pending_hits = 105, Reservation_fails = 56
L2_cache_bank[2]: Access = 69390, Miss = 51545, Miss_rate = 0.743, Pending_hits = 77, Reservation_fails = 667
L2_cache_bank[3]: Access = 70727, Miss = 52371, Miss_rate = 0.740, Pending_hits = 105, Reservation_fails = 854
L2_cache_bank[4]: Access = 72596, Miss = 52066, Miss_rate = 0.717, Pending_hits = 1154, Reservation_fails = 602
L2_cache_bank[5]: Access = 71945, Miss = 52281, Miss_rate = 0.727, Pending_hits = 134, Reservation_fails = 1792
L2_cache_bank[6]: Access = 71995, Miss = 52049, Miss_rate = 0.723, Pending_hits = 116, Reservation_fails = 1516
L2_cache_bank[7]: Access = 71042, Miss = 51809, Miss_rate = 0.729, Pending_hits = 116, Reservation_fails = 435
L2_cache_bank[8]: Access = 72729, Miss = 52268, Miss_rate = 0.719, Pending_hits = 170, Reservation_fails = 2317
L2_cache_bank[9]: Access = 72895, Miss = 52236, Miss_rate = 0.717, Pending_hits = 152, Reservation_fails = 1429
L2_cache_bank[10]: Access = 70583, Miss = 51728, Miss_rate = 0.733, Pending_hits = 113, Reservation_fails = 131
L2_cache_bank[11]: Access = 71942, Miss = 52314, Miss_rate = 0.727, Pending_hits = 94, Reservation_fails = 440
L2_cache_bank[12]: Access = 72099, Miss = 51653, Miss_rate = 0.716, Pending_hits = 1146, Reservation_fails = 393
L2_cache_bank[13]: Access = 70761, Miss = 52175, Miss_rate = 0.737, Pending_hits = 126, Reservation_fails = 1896
L2_cache_bank[14]: Access = 70846, Miss = 52235, Miss_rate = 0.737, Pending_hits = 150, Reservation_fails = 3693
L2_cache_bank[15]: Access = 72719, Miss = 51830, Miss_rate = 0.713, Pending_hits = 153, Reservation_fails = 3969
L2_cache_bank[16]: Access = 74513, Miss = 51911, Miss_rate = 0.697, Pending_hits = 148, Reservation_fails = 1197
L2_cache_bank[17]: Access = 71722, Miss = 52040, Miss_rate = 0.726, Pending_hits = 104, Reservation_fails = 750
L2_cache_bank[18]: Access = 70179, Miss = 52047, Miss_rate = 0.742, Pending_hits = 113, Reservation_fails = 1280
L2_cache_bank[19]: Access = 72055, Miss = 51965, Miss_rate = 0.721, Pending_hits = 97, Reservation_fails = 1032
L2_cache_bank[20]: Access = 72034, Miss = 52122, Miss_rate = 0.724, Pending_hits = 1143, Reservation_fails = 1386
L2_cache_bank[21]: Access = 69749, Miss = 51614, Miss_rate = 0.740, Pending_hits = 131, Reservation_fails = 996
L2_cache_bank[22]: Access = 73021, Miss = 52117, Miss_rate = 0.714, Pending_hits = 111, Reservation_fails = 1791
L2_cache_bank[23]: Access = 70738, Miss = 51901, Miss_rate = 0.734, Pending_hits = 102, Reservation_fails = 1034
L2_total_cache_accesses = 1717568
L2_total_cache_misses = 1247828
L2_total_cache_miss_rate = 0.7265
L2_total_cache_pending_hits = 5976
L2_total_cache_reservation_fails = 31168
L2_total_cache_breakdown:
	L2_cache_stats_breakdown[GLOBAL_ACC_R][HIT] = 402219
	L2_cache_stats_breakdown[GLOBAL_ACC_R][HIT_RESERVED] = 5976
	L2_cache_stats_breakdown[GLOBAL_ACC_R][MISS] = 660615
	L2_cache_stats_breakdown[GLOBAL_ACC_R][RESERVATION_FAIL] = 31168
	L2_cache_stats_breakdown[GLOBAL_ACC_R][SECTOR_MISS] = 587213
	L2_cache_stats_breakdown[GLOBAL_ACC_R][MSHR_HIT] = 5976
	L2_cache_stats_breakdown[LOCAL_ACC_R][HIT] = 0
	L2_cache_stats_breakdown[LOCAL_ACC_R][HIT_RESERVED] = 0
	L2_cache_stats_breakdown[LOCAL_ACC_R][MISS] = 0
	L2_cache_stats_breakdown[LOCAL_ACC_R][RESERVATION_FAIL] = 0
	L2_cache_stats_breakdown[LOCAL_ACC_R][SECTOR_MISS] = 0
	L2_cache_stats_breakdown[LOCAL_ACC_R][MSHR_HIT] = 0
	L2_cache_stats_breakdown[CONST_ACC_R][HIT] = 0
	L2_cache_stats_breakdown[CONST_ACC_R][HIT_RESERVED] = 0
	L2_cache_stats_breakdown[CONST_ACC_R][MISS] = 0
	L2_cache_stats_breakdown[CONST_ACC_R][RESERVATION_FAIL] = 0
	L2_cache_stats_breakdown[CONST_ACC_R][SECTOR_MISS] = 0
	L2_cache_stats_breakdown[CONST_ACC_R][MSHR_HIT] = 0
	L2_cache_stats_breakdown[TEXTURE_ACC_R][HIT] = 0
	L2_cache_stats_breakdown[TEXTURE_ACC_R][HIT_RESERVED] = 0
	L2_cache_stats_breakdown[TEXTURE_ACC_R][MISS] = 0
	L2_cache_stats_breakdown[TEXTURE_ACC_R][RESERVATION_FAIL] = 0
	L2_cache_stats_breakdown[TEXTURE_ACC_R][SECTOR_MISS] = 0
	L2_cache_stats_breakdown[TEXTURE_ACC_R][MSHR_HIT] = 0
	L2_cache_stats_breakdown[GLOBAL_ACC_W][HIT] = 61545
	L2_cache_stats_breakdown[GLOBAL_ACC_W][HIT_RESERVED] = 0
	L2_cache_stats_breakdown[GLOBAL_ACC_W][MISS] = 0
	L2_cache_stats_breakdown[GLOBAL_ACC_W][RESERVATION_FAIL] = 0
	L2_cache_stats_breakdown[GLOBAL_ACC_W][SECTOR_MISS] = 0
	L2_cache_stats_breakdown[GLOBAL_ACC_W][MSHR_HIT] = 0
	L2_cache_stats_breakdown[LOCAL_ACC_W][HIT] = 0
	L2_cache_stats_breakdown[LOCAL_ACC_W][HIT_RESERVED] = 0
	L2_cache_stats_breakdown[LOCAL_ACC_W][MISS] = 0
	L2_cache_stats_breakdown[LOCAL_ACC_W][RESERVATION_FAIL] = 0
	L2_cache_stats_breakdown[LOCAL_ACC_W][SECTOR_MISS] = 0
	L2_cache_stats_breakdown[LOCAL_ACC_W][MSHR_HIT] = 0
	L2_cache_stats_breakdown[L1_WRBK_ACC][HIT] = 0
	L2_cache_stats_breakdown[L1_WRBK_ACC][HIT_RESERVED] = 0
	L2_cache_stats_breakdown[L1_WRBK_ACC][MISS] = 0
	L2_cache_stats_breakdown[L1_WRBK_ACC][RESERVATION_FAIL] = 0
	L2_cache_stats_breakdown[L1_WRBK_ACC][SECTOR_MISS] = 0
	L2_cache_stats_breakdown[L1_WRBK_ACC][MSHR_HIT] = 0
	L2_cache_stats_breakdown[L2_WRBK_ACC][HIT] = 0
	L2_cache_stats_breakdown[L2_WRBK_ACC][HIT_RESERVED] = 0
	L2_cache_stats_breakdown[L2_WRBK_ACC][MISS] = 0
	L2_cache_stats_breakdown[L2_WRBK_ACC][RESERVATION_FAIL] = 0
	L2_cache_stats_breakdown[L2_WRBK_ACC][SECTOR_MISS] = 0
	L2_cache_stats_breakdown[L2_WRBK_ACC][MSHR_HIT] = 0
	L2_cache_stats_breakdown[INST_ACC_R][HIT] = 0
	L2_cache_stats_breakdown[INST_ACC_R][HIT_RESERVED] = 0
	L2_cache_stats_breakdown[INST_ACC_R][MISS] = 0
	L2_cache_stats_breakdown[INST_ACC_R][RESERVATION_FAIL] = 0
	L2_cache_stats_breakdown[INST_ACC_R][SECTOR_MISS] = 0
	L2_cache_stats_breakdown[INST_ACC_R][MSHR_HIT] = 0
	L2_cache_stats_breakdown[L1_WR_ALLOC_R][HIT] = 0
	L2_cache_stats_breakdown[L1_WR_ALLOC_R][HIT_RESERVED] = 0
	L2_cache_stats_breakdown[L1_WR_ALLOC_R][MISS] = 0
	L2_cache_stats_breakdown[L1_WR_ALLOC_R][RESERVATION_FAIL] = 0
	L2_cache_stats_breakdown[L1_WR_ALLOC_R][SECTOR_MISS] = 0
	L2_cache_stats_breakdown[L1_WR_ALLOC_R][MSHR_HIT] = 0
	L2_cache_stats_breakdown[L2_WR_ALLOC_R][HIT] = 0
	L2_cache_stats_breakdown[L2_WR_ALLOC_R][HIT_RESERVED] = 0
	L2_cache_stats_breakdown[L2_WR_ALLOC_R][MISS] = 0
	L2_cache_stats_breakdown[L2_WR_ALLOC_R][RESERVATION_FAIL] = 0
	L2_cache_stats_breakdown[L2_WR_ALLOC_R][SECTOR_MISS] = 0
	L2_cache_stats_breakdown[L2_WR_ALLOC_R][MSHR_HIT] = 0
	L2_cache_stats_breakdown[GLOBAL_ACC_R][TOTAL_ACCESS] = 1656023
	L2_cache_stats_breakdown[GLOBAL_ACC_W][TOTAL_ACCESS] = 61545
L2_total_cache_reservation_fail_breakdown:
	L2_cache_stats_fail_breakdown[GLOBAL_ACC_R][MISS_QUEUE_FULL] = 1
	L2_cache_stats_fail_breakdown[GLOBAL_ACC_R][MSHR_ENRTY_FAIL] = 6557
	L2_cache_stats_fail_breakdown[GLOBAL_ACC_R][MSHR_MERGE_ENRTY_FAIL] = 24610
L2_cache_data_port_util = 0.072
L2_cache_fill_port_util = 0.193

icnt_total_pkts_mem_to_simt=1717568
icnt_total_pkts_simt_to_mem=1717568
LD_mem_lat_dist  0 0 0 0 0 0 0 0 0 0 0 0 0 0 0 0 0 0 0 0 0 0 0 0 0 0 0
ST_mem_lat_dist  0 0 0 0 0 0 0 0 0 0 0 0 0 0 0 0 0 0 0 0 0 0 0 0 0 0 0
----------------------------Interconnect-DETAILS--------------------------------
Req_Network_injected_packets_num = 1717568
Req_Network_cycles = 269979
Req_Network_injected_packets_per_cycle =       6.3619 
Req_Network_conflicts_per_cycle =       1.6731
Req_Network_conflicts_per_cycle_util =       1.9473
Req_Bank_Level_Parallism =       7.4045
Req_Network_in_buffer_full_per_cycle =       0.0000
Req_Network_in_buffer_avg_util =       1.4860
Req_Network_out_buffer_full_per_cycle =       0.0000
Req_Network_out_buffer_avg_util =      22.8549

Reply_Network_injected_packets_num = 1717568
Reply_Network_cycles = 269979
Reply_Network_injected_packets_per_cycle =        6.3619
Reply_Network_conflicts_per_cycle =        2.8307
Reply_Network_conflicts_per_cycle_util =       3.2883
Reply_Bank_Level_Parallism =       7.3902
Reply_Network_in_buffer_full_per_cycle =       0.0000
Reply_Network_in_buffer_avg_util =       0.5747
Reply_Network_out_buffer_full_per_cycle =       0.0000
Reply_Network_out_buffer_avg_util =       0.2121
----------------------------END-of-Interconnect-DETAILS-------------------------


gpgpu_simulation_time = 0 days, 0 hrs, 39 min, 31 sec (2371 sec)
gpgpu_simulation_rate = 28586 (inst/sec)
gpgpu_simulation_rate = 113 (cycle/sec)
gpgpu_silicon_slowdown = 12079646x
GPGPU-Sim: synchronize waiting for inactive GPU simulation
GPGPU-Sim API: Stream Manager State
GPGPU-Sim: detected inactive GPU simulation thread
	runtime [cuda_afforest] = 2308963.532000 ms.
Verifying...
	runtime [serial] = 294.890000 ms.
Correct
GPGPU-Sim: *** exit detected ***
