

        *** GPGPU-Sim Simulator Version 4.2.0  [build gpgpu-sim_git-commit-5e9d31b8132651796656877ecb58fde27177ba7a_modified_315.0] ***


GPGPU-Sim PTX: simulation mode 0 (can change with PTX_SIM_MODE_FUNC environment variable:
               1=functional simulation only, 0=detailed performance simulator)
GPGPU-Sim PTX: overriding embedded ptx with ptx file (PTX_SIM_USE_PTX_FILE is set)
GPGPU-Sim: Configuration options:

-save_embedded_ptx                      0 # saves ptx files embedded in binary as <n>.ptx
-keep                                   0 # keep intermediate files created by GPGPU-Sim when interfacing with external programs
-gpgpu_ptx_save_converted_ptxplus                    0 # Saved converted ptxplus to a file
-gpgpu_occupancy_sm_number                   75 # The SM number to pass to ptxas when getting register usage for computing GPU occupancy. This parameter is required in the config.
-ptx_opcode_latency_int           4,4,4,4,21 # Opcode latencies for integers <ADD,MAX,MUL,MAD,DIV,SHFL>Default 1,1,19,25,145,32
-ptx_opcode_latency_fp           4,4,4,4,39 # Opcode latencies for single precision floating points <ADD,MAX,MUL,MAD,DIV>Default 1,1,1,1,30
-ptx_opcode_latency_dp      64,64,64,64,330 # Opcode latencies for double precision floating points <ADD,MAX,MUL,MAD,DIV>Default 8,8,8,8,335
-ptx_opcode_latency_sfu                   21 # Opcode latencies for SFU instructionsDefault 8
-ptx_opcode_latency_tesnor                   64 # Opcode latencies for Tensor instructionsDefault 64
-ptx_opcode_initiation_int            2,2,2,2,2 # Opcode initiation intervals for integers <ADD,MAX,MUL,MAD,DIV,SHFL>Default 1,1,4,4,32,4
-ptx_opcode_initiation_fp            2,2,2,2,4 # Opcode initiation intervals for single precision floating points <ADD,MAX,MUL,MAD,DIV>Default 1,1,1,1,5
-ptx_opcode_initiation_dp      64,64,64,64,130 # Opcode initiation intervals for double precision floating points <ADD,MAX,MUL,MAD,DIV>Default 8,8,8,8,130
-ptx_opcode_initiation_sfu                    8 # Opcode initiation intervals for sfu instructionsDefault 8
-ptx_opcode_initiation_tensor                   64 # Opcode initiation intervals for tensor instructionsDefault 64
-cdp_latency         7200,8000,100,12000,1600 # CDP API latency <cudaStreamCreateWithFlags, cudaGetParameterBufferV2_init_perWarp, cudaGetParameterBufferV2_perKernel, cudaLaunchDeviceV2_init_perWarp, cudaLaunchDevicV2_perKernel>Default 7200,8000,100,12000,1600
-network_mode                           2 # Interconnection network mode
-inter_config_file                   mesh # Interconnection network config file
-icnt_in_buffer_limit                  512 # in_buffer_limit
-icnt_out_buffer_limit                  512 # out_buffer_limit
-icnt_subnets                           2 # subnets
-icnt_arbiter_algo                      1 # arbiter_algo
-icnt_verbose                           0 # inct_verbose
-icnt_grant_cycles                      1 # grant_cycles
-gpgpu_ptx_use_cuobjdump                    1 # Use cuobjdump to extract ptx and sass from binaries
-gpgpu_experimental_lib_support                    0 # Try to extract code from cuda libraries [Broken because of unknown cudaGetExportTable]
-checkpoint_option                      0 #  checkpointing flag (0 = no checkpoint)
-checkpoint_kernel                      1 #  checkpointing during execution of which kernel (1- 1st kernel)
-checkpoint_CTA                         0 #  checkpointing after # of CTA (< less than total CTA)
-resume_option                          0 #  resume flag (0 = no resume)
-resume_kernel                          0 #  Resume from which kernel (1= 1st kernel)
-resume_CTA                             0 #  resume from which CTA 
-checkpoint_CTA_t                       0 #  resume from which CTA 
-checkpoint_insn_Y                      0 #  resume from which CTA 
-gpgpu_ptx_convert_to_ptxplus                    0 # Convert SASS (native ISA) to ptxplus and run ptxplus
-gpgpu_ptx_force_max_capability                   75 # Force maximum compute capability
-gpgpu_ptx_inst_debug_to_file                    0 # Dump executed instructions' debug information to file
-gpgpu_ptx_inst_debug_file       inst_debug.txt # Executed instructions' debug output file
-gpgpu_ptx_inst_debug_thread_uid                    1 # Thread UID for executed instructions' debug output
-gpgpu_simd_model                       1 # 1 = post-dominator
-gpgpu_shader_core_pipeline              1024:32 # shader core pipeline config, i.e., {<nthread>:<warpsize>}
-gpgpu_tex_cache:l1  N:4:128:256,L:R:m:N:L,T:512:8,128:2 # per-shader L1 texture cache  (READ-ONLY) config  {<nsets>:<bsize>:<assoc>,<rep>:<wr>:<alloc>:<wr_alloc>,<mshr>:<N>:<merge>,<mq>:<rf>}
-gpgpu_const_cache:l1 N:128:64:8,L:R:f:N:L,S:2:64,4 # per-shader L1 constant memory cache  (READ-ONLY) config  {<nsets>:<bsize>:<assoc>,<rep>:<wr>:<alloc>:<wr_alloc>,<mshr>:<N>:<merge>,<mq>} 
-gpgpu_cache:il1     N:64:128:16,L:R:f:N:L,S:2:48,4 # shader L1 instruction cache config  {<nsets>:<bsize>:<assoc>,<rep>:<wr>:<alloc>:<wr_alloc>,<mshr>:<N>:<merge>,<mq>} 
-gpgpu_cache:dl1     S:4:128:64,L:T:m:L:L,A:256:32,16:0,32 # per-shader L1 data cache config  {<nsets>:<bsize>:<assoc>,<rep>:<wr>:<alloc>:<wr_alloc>,<mshr>:<N>:<merge>,<mq> | none}
-gpgpu_l1_cache_write_ratio                   25 # L1D write ratio
-gpgpu_l1_banks                         4 # The number of L1 cache banks
-gpgpu_l1_banks_byte_interleaving                   32 # l1 banks byte interleaving granularity
-gpgpu_l1_banks_hashing_function                    0 # l1 banks hashing function
-gpgpu_l1_latency                      32 # L1 Hit Latency
-gpgpu_smem_latency                    30 # smem Latency
-gpgpu_cache:dl1PrefL1                 none # per-shader L1 data cache config  {<nsets>:<bsize>:<assoc>,<rep>:<wr>:<alloc>:<wr_alloc>,<mshr>:<N>:<merge>,<mq> | none}
-gpgpu_cache:dl1PrefShared                 none # per-shader L1 data cache config  {<nsets>:<bsize>:<assoc>,<rep>:<wr>:<alloc>:<wr_alloc>,<mshr>:<N>:<merge>,<mq> | none}
-gpgpu_gmem_skip_L1D                    0 # global memory access skip L1D cache (implements -Xptxas -dlcm=cg, default=no skip)
-gpgpu_perfect_mem                      0 # enable perfect memory mode (no cache miss)
-n_regfile_gating_group                    4 # group of lanes that should be read/written together)
-gpgpu_clock_gated_reg_file                    0 # enable clock gated reg file for power calculations
-gpgpu_clock_gated_lanes                    0 # enable clock gated lanes for power calculations
-gpgpu_shader_registers                65536 # Number of registers per shader core. Limits number of concurrent CTAs. (default 8192)
-gpgpu_registers_per_block                65536 # Maximum number of registers per CTA. (default 8192)
-gpgpu_ignore_resources_limitation                    0 # gpgpu_ignore_resources_limitation (default 0)
-gpgpu_shader_cta                      16 # Maximum number of concurrent CTAs in shader (default 32)
-gpgpu_num_cta_barriers                   16 # Maximum number of named barriers per CTA (default 16)
-gpgpu_n_clusters                      30 # number of processing clusters
-gpgpu_n_cores_per_cluster                    1 # number of simd cores per cluster
-gpgpu_n_cluster_ejection_buffer_size                   32 # number of packets in ejection buffer
-gpgpu_n_ldst_response_buffer_size                    2 # number of response packets in ld/st unit ejection buffer
-gpgpu_shmem_per_block                49152 # Size of shared memory per thread block or CTA (default 48kB)
-gpgpu_shmem_size                   65536 # Size of shared memory per shader core (default 16kB)
-gpgpu_shmem_option                 32,64 # Option list of shared memory sizes
-gpgpu_unified_l1d_size                   96 # Size of unified data cache(L1D + shared memory) in KB
-gpgpu_adaptive_cache_config                    1 # adaptive_cache_config
-gpgpu_shmem_sizeDefault                65536 # Size of shared memory per shader core (default 16kB)
-gpgpu_shmem_size_PrefL1                16384 # Size of shared memory per shader core (default 16kB)
-gpgpu_shmem_size_PrefShared                16384 # Size of shared memory per shader core (default 16kB)
-gpgpu_shmem_num_banks                   32 # Number of banks in the shared memory in each shader core (default 16)
-gpgpu_shmem_limited_broadcast                    0 # Limit shared memory to do one broadcast per cycle (default on)
-gpgpu_shmem_warp_parts                    1 # Number of portions a warp is divided into for shared memory bank conflict check 
-gpgpu_mem_unit_ports                    1 # The number of memory transactions allowed per core cycle
-gpgpu_shmem_warp_parts                    1 # Number of portions a warp is divided into for shared memory bank conflict check 
-gpgpu_warpdistro_shader                   -1 # Specify which shader core to collect the warp size distribution from
-gpgpu_warp_issue_shader                    0 # Specify which shader core to collect the warp issue distribution from
-gpgpu_local_mem_map                    1 # Mapping from local memory space address to simulated GPU physical address space (default = enabled)
-gpgpu_num_reg_banks                    8 # Number of register banks (default = 8)
-gpgpu_reg_bank_use_warp_id                    0 # Use warp ID in mapping registers to banks (default = off)
-gpgpu_sub_core_model                    1 # Sub Core Volta/Pascal model (default = off)
-gpgpu_enable_specialized_operand_collector                    0 # enable_specialized_operand_collector
-gpgpu_operand_collector_num_units_sp                    4 # number of collector units (default = 4)
-gpgpu_operand_collector_num_units_dp                    0 # number of collector units (default = 0)
-gpgpu_operand_collector_num_units_sfu                    4 # number of collector units (default = 4)
-gpgpu_operand_collector_num_units_int                    0 # number of collector units (default = 0)
-gpgpu_operand_collector_num_units_tensor_core                    4 # number of collector units (default = 4)
-gpgpu_operand_collector_num_units_mem                    2 # number of collector units (default = 2)
-gpgpu_operand_collector_num_units_gen                    8 # number of collector units (default = 0)
-gpgpu_operand_collector_num_in_ports_sp                    1 # number of collector unit in ports (default = 1)
-gpgpu_operand_collector_num_in_ports_dp                    0 # number of collector unit in ports (default = 0)
-gpgpu_operand_collector_num_in_ports_sfu                    1 # number of collector unit in ports (default = 1)
-gpgpu_operand_collector_num_in_ports_int                    0 # number of collector unit in ports (default = 0)
-gpgpu_operand_collector_num_in_ports_tensor_core                    1 # number of collector unit in ports (default = 1)
-gpgpu_operand_collector_num_in_ports_mem                    1 # number of collector unit in ports (default = 1)
-gpgpu_operand_collector_num_in_ports_gen                    8 # number of collector unit in ports (default = 0)
-gpgpu_operand_collector_num_out_ports_sp                    1 # number of collector unit in ports (default = 1)
-gpgpu_operand_collector_num_out_ports_dp                    0 # number of collector unit in ports (default = 0)
-gpgpu_operand_collector_num_out_ports_sfu                    1 # number of collector unit in ports (default = 1)
-gpgpu_operand_collector_num_out_ports_int                    0 # number of collector unit in ports (default = 0)
-gpgpu_operand_collector_num_out_ports_tensor_core                    1 # number of collector unit in ports (default = 1)
-gpgpu_operand_collector_num_out_ports_mem                    1 # number of collector unit in ports (default = 1)
-gpgpu_operand_collector_num_out_ports_gen                    8 # number of collector unit in ports (default = 0)
-gpgpu_coalesce_arch                   75 # Coalescing arch (GT200 = 13, Fermi = 20)
-gpgpu_num_sched_per_core                    4 # Number of warp schedulers per core
-gpgpu_max_insn_issue_per_warp                    1 # Max number of instructions that can be issued per warp in one cycle by scheduler (either 1 or 2)
-gpgpu_dual_issue_diff_exec_units                    1 # should dual issue use two different execution unit resources (Default = 1)
-gpgpu_simt_core_sim_order                    1 # Select the simulation order of cores in a cluster (0=Fix, 1=Round-Robin)
-gpgpu_pipeline_widths 4,4,4,4,4,4,4,4,4,4,8,4,4 # Pipeline widths ID_OC_SP,ID_OC_DP,ID_OC_INT,ID_OC_SFU,ID_OC_MEM,OC_EX_SP,OC_EX_DP,OC_EX_INT,OC_EX_SFU,OC_EX_MEM,EX_WB,ID_OC_TENSOR_CORE,OC_EX_TENSOR_CORE
-gpgpu_tensor_core_avail                    1 # Tensor Core Available (default=0)
-gpgpu_num_sp_units                     4 # Number of SP units (default=1)
-gpgpu_num_dp_units                     4 # Number of DP units (default=0)
-gpgpu_num_int_units                    4 # Number of INT units (default=0)
-gpgpu_num_sfu_units                    4 # Number of SF units (default=1)
-gpgpu_num_tensor_core_units                    4 # Number of tensor_core units (default=1)
-gpgpu_num_mem_units                    1 # Number if ldst units (default=1) WARNING: not hooked up to anything
-gpgpu_scheduler                      lrr # Scheduler configuration: < lrr | gto | two_level_active > If two_level_active:<num_active_warps>:<inner_prioritization>:<outer_prioritization>For complete list of prioritization values see shader.h enum scheduler_prioritization_typeDefault: gto
-gpgpu_concurrent_kernel_sm                    0 # Support concurrent kernels on a SM (default = disabled)
-gpgpu_perfect_inst_const_cache                    1 # perfect inst and const cache mode, so all inst and const hits in the cache(default = disabled)
-gpgpu_inst_fetch_throughput                    4 # the number of fetched intruction per warp each cycle
-gpgpu_reg_file_port_throughput                    2 # the number ports of the register file
-specialized_unit_1         0,4,4,4,4,BRA # specialized unit config {<enabled>,<num_units>:<latency>:<initiation>,<ID_OC_SPEC>:<OC_EX_SPEC>,<NAME>}
-specialized_unit_2         0,4,4,4,4,BRA # specialized unit config {<enabled>,<num_units>:<latency>:<initiation>,<ID_OC_SPEC>:<OC_EX_SPEC>,<NAME>}
-specialized_unit_3         0,4,4,4,4,BRA # specialized unit config {<enabled>,<num_units>:<latency>:<initiation>,<ID_OC_SPEC>:<OC_EX_SPEC>,<NAME>}
-specialized_unit_4         0,4,4,4,4,BRA # specialized unit config {<enabled>,<num_units>:<latency>:<initiation>,<ID_OC_SPEC>:<OC_EX_SPEC>,<NAME>}
-specialized_unit_5         0,4,4,4,4,BRA # specialized unit config {<enabled>,<num_units>:<latency>:<initiation>,<ID_OC_SPEC>:<OC_EX_SPEC>,<NAME>}
-specialized_unit_6         0,4,4,4,4,BRA # specialized unit config {<enabled>,<num_units>:<latency>:<initiation>,<ID_OC_SPEC>:<OC_EX_SPEC>,<NAME>}
-specialized_unit_7         0,4,4,4,4,BRA # specialized unit config {<enabled>,<num_units>:<latency>:<initiation>,<ID_OC_SPEC>:<OC_EX_SPEC>,<NAME>}
-specialized_unit_8         0,4,4,4,4,BRA # specialized unit config {<enabled>,<num_units>:<latency>:<initiation>,<ID_OC_SPEC>:<OC_EX_SPEC>,<NAME>}
-gpgpu_perf_sim_memcpy                    1 # Fill the L2 cache on memcpy
-gpgpu_simple_dram_model                    0 # simple_dram_model with fixed latency and BW
-gpgpu_dram_scheduler                    1 # 0 = fifo, 1 = FR-FCFS (defaul)
-gpgpu_dram_partition_queues          64:64:64:64 # i2$:$2d:d2$:$2i
-l2_ideal                               0 # Use a ideal L2 cache that always hit
-gpgpu_cache:dl2     S:64:128:16,L:B:m:L:P,A:192:4,32:0,32 # unified banked L2 data cache config  {<nsets>:<bsize>:<assoc>,<rep>:<wr>:<alloc>:<wr_alloc>,<mshr>:<N>:<merge>,<mq>}
-gpgpu_cache:dl2_texture_only                    0 # L2 cache used for texture only
-gpgpu_n_mem                           12 # number of memory modules (e.g. memory controllers) in gpu
-gpgpu_n_sub_partition_per_mchannel                    2 # number of memory subpartition in each memory module
-gpgpu_n_mem_per_ctrlr                    1 # number of memory chips per memory controller
-gpgpu_memlatency_stat                   14 # track and display latency statistics 0x2 enables MC, 0x4 enables queue logs
-gpgpu_frfcfs_dram_sched_queue_size                   64 # 0 = unlimited (default); # entries per chip
-gpgpu_dram_return_queue_size                  192 # 0 = unlimited (default); # entries per chip
-gpgpu_dram_buswidth                    2 # default = 4 bytes (8 bytes per cycle at DDR)
-gpgpu_dram_burst_length                   16 # Burst length of each DRAM request (default = 4 data bus cycle)
-dram_data_command_freq_ratio                    4 # Frequency ratio between DRAM data bus and command bus (default = 2 times, i.e. DDR)
-gpgpu_dram_timing_opt nbk=16:CCD=4:RRD=12:RCD=24:RAS=55:RP=24:RC=78:CL=24:WL=8:CDLR=10:WR=24:nbkgrp=4:CCDL=6:RTPL=4 # DRAM timing parameters = {nbk:tCCD:tRRD:tRCD:tRAS:tRP:tRC:CL:WL:tCDLR:tWR:nbkgrp:tCCDL:tRTPL}
-gpgpu_l2_rop_latency                  194 # ROP queue latency (default 85)
-dram_latency                          96 # DRAM latency (default 30)
-dram_dual_bus_interface                    0 # dual_bus_interface (default = 0) 
-dram_bnk_indexing_policy                    0 # dram_bnk_indexing_policy (0 = normal indexing, 1 = Xoring with the higher bits) (Default = 0)
-dram_bnkgrp_indexing_policy                    1 # dram_bnkgrp_indexing_policy (0 = take higher bits, 1 = take lower bits) (Default = 0)
-dram_seperate_write_queue_enable                    0 # Seperate_Write_Queue_Enable
-dram_write_queue_size             32:28:16 # Write_Queue_Size
-dram_elimnate_rw_turnaround                    0 # elimnate_rw_turnaround i.e set tWTR and tRTW = 0
-icnt_flit_size                        40 # icnt_flit_size
-icnt_flit_size                        40 # icnt_flit_size
-mem_profiler                           0 # memory access runtime profiling (0 = not enabled)
-gpgpu_mem_addr_mapping dramid@8;00000000.00000000.00000000.00000000.0000RRRR.RRRRRRRR.RBBBCCCC.BCCSSSSS # mapping memory address to dram model {dramid@<start bit>;<memory address map>}
-gpgpu_mem_addr_test                    0 # run sweep test to check address mapping for aliased address
-gpgpu_mem_address_mask                    1 # 0 = old addressing mask, 1 = new addressing mask, 2 = new add. mask + flipped bank sel and chip sel bits
-gpgpu_memory_partition_indexing                    0 # 0 = no indexing, 1 = bitwise xoring, 2 = IPoly, 3 = custom indexing
-accelwattch_xml_file accelwattch_sass_sim.xml # AccelWattch XML file
-power_simulation_enabled                    1 # Turn on power simulator (1=On, 0=Off)
-power_per_cycle_dump                    1 # Dump detailed power output each cycle
-hw_perf_file_name            hw_perf.csv # Hardware Performance Statistics file
-hw_perf_bench_name    hw_perf_bench_name # Kernel Name in Hardware Performance Statistics file
-power_simulation_mode                    0 # Switch performance counter input for power simulation (0=Sim, 1=HW, 2=HW-Sim Hybrid)
-dvfs_enabled                           1 # Turn on DVFS for power model
-aggregate_power_stats                    0 # Accumulate power across all kernels
-accelwattch_hybrid_perfsim_L1_RH                    0 # Get L1 Read Hits for Accelwattch-Hybrid from Accel-Sim
-accelwattch_hybrid_perfsim_L1_RM                    0 # Get L1 Read Misses for Accelwattch-Hybrid from Accel-Sim
-accelwattch_hybrid_perfsim_L1_WH                    0 # Get L1 Write Hits for Accelwattch-Hybrid from Accel-Sim
-accelwattch_hybrid_perfsim_L1_WM                    0 # Get L1 Write Misses for Accelwattch-Hybrid from Accel-Sim
-accelwattch_hybrid_perfsim_L2_RH                    0 # Get L2 Read Hits for Accelwattch-Hybrid from Accel-Sim
-accelwattch_hybrid_perfsim_L2_RM                    0 # Get L2 Read Misses for Accelwattch-Hybrid from Accel-Sim
-accelwattch_hybrid_perfsim_L2_WH                    0 # Get L2 Write Hits for Accelwattch-Hybrid from Accel-Sim
-accelwattch_hybrid_perfsim_L2_WM                    0 # Get L2 Write Misses for Accelwattch-Hybrid from Accel-Sim
-accelwattch_hybrid_perfsim_CC_ACC                    0 # Get Constant Cache Acesses for Accelwattch-Hybrid from Accel-Sim
-accelwattch_hybrid_perfsim_SHARED_ACC                    0 # Get Shared Memory Acesses for Accelwattch-Hybrid from Accel-Sim
-accelwattch_hybrid_perfsim_DRAM_RD                    0 # Get DRAM Reads for Accelwattch-Hybrid from Accel-Sim
-accelwattch_hybrid_perfsim_DRAM_WR                    0 # Get DRAM Writes for Accelwattch-Hybrid from Accel-Sim
-accelwattch_hybrid_perfsim_NOC                    0 # Get Interconnect Acesses for Accelwattch-Hybrid from Accel-Sim
-accelwattch_hybrid_perfsim_PIPE_DUTY                    0 # Get Pipeline Duty Cycle Acesses for Accelwattch-Hybrid from Accel-Sim
-accelwattch_hybrid_perfsim_NUM_SM_IDLE                    0 # Get Number of Idle SMs for Accelwattch-Hybrid from Accel-Sim
-accelwattch_hybrid_perfsim_CYCLES                    0 # Get Executed Cycles for Accelwattch-Hybrid from Accel-Sim
-accelwattch_hybrid_perfsim_VOLTAGE                    0 # Get Chip Voltage for Accelwattch-Hybrid from Accel-Sim
-power_trace_enabled                    0 # produce a file for the power trace (1=On, 0=Off)
-power_trace_zlevel                     0 # Compression level of the power trace output log (0=no comp, 9=highest)
-steady_power_levels_enabled                    0 # produce a file for the steady power levels (1=On, 0=Off)
-steady_state_definition                  8:4 # allowed deviation:number of samples
-gpgpu_max_cycle                        0 # terminates gpu simulation early (0 = no limit)
-gpgpu_max_insn                         0 # terminates gpu simulation early (0 = no limit)
-gpgpu_max_cta                          0 # terminates gpu simulation early (0 = no limit)
-gpgpu_max_completed_cta                    0 # terminates gpu simulation early (0 = no limit)
-gpgpu_runtime_stat                  1000 # display runtime statistics such as dram utilization {<freq>:<flag>}
-liveness_message_freq                    1 # Minimum number of seconds between simulation liveness messages (0 = always print)
-gpgpu_compute_capability_major                    7 # Major compute capability version number
-gpgpu_compute_capability_minor                    5 # Minor compute capability version number
-gpgpu_flush_l1_cache                    1 # Flush L1 cache at the end of each kernel call
-gpgpu_flush_l2_cache                    0 # Flush L2 cache at the end of each kernel call
-gpgpu_deadlock_detect                    1 # Stop the simulation at deadlock (1=on (default), 0=off)
-gpgpu_ptx_instruction_classification                    0 # if enabled will classify ptx instruction types per kernel (Max 255 kernels now)
-gpgpu_ptx_sim_mode                     0 # Select between Performance (default) or Functional simulation (1)
-gpgpu_clock_domains 1365:1365:1365:3500.5 # Clock Domain Frequencies in MhZ {<Core Clock>:<ICNT Clock>:<L2 Clock>:<DRAM Clock>}
-gpgpu_max_concurrent_kernel                  128 # maximum kernels that can run concurrently on GPU, set this value according to max resident grids for your compute capability
-gpgpu_cflog_interval                    0 # Interval between each snapshot in control flow logger
-visualizer_enabled                     0 # Turn on visualizer output (1=On, 0=Off)
-visualizer_outputfile                 NULL # Specifies the output log file for visualizer
-visualizer_zlevel                      6 # Compression level of the visualizer output log (0=no comp, 9=highest)
-gpgpu_stack_size_limit                 1024 # GPU thread stack size
-gpgpu_heap_size_limit              8388608 # GPU malloc heap size 
-gpgpu_runtime_sync_depth_limit                    2 # GPU device runtime synchronize depth
-gpgpu_runtime_pending_launch_count_limit                 2048 # GPU device runtime pending launch count
-trace_enabled                          0 # Turn on traces
-trace_components                    none # comma seperated list of traces to enable. Complete list found in trace_streams.tup. Default none
-trace_sampling_core                    0 # The core which is printed using CORE_DPRINTF. Default 0
-trace_sampling_memory_partition                   -1 # The memory partition which is printed using MEMPART_DPRINTF. Default -1 (i.e. all)
-enable_ptx_file_line_stats                    1 # Turn on PTX source line statistic profiling. (1 = On)
-ptx_line_stats_filename gpgpu_inst_stats.txt # Output file for PTX source line statistics.
-gpgpu_kernel_launch_latency                 5000 # Kernel launch latency in cycles. Default: 0
-gpgpu_cdp_enabled                      0 # Turn on CDP
-gpgpu_TB_launch_latency                    0 # thread block launch latency in cycles. Default: 0
-mem_runtime_stat                     100 # memory access runtime profiling sampling13857925da71462a6e7457567930a073  /home/pars/Documents/sim_7/pr_base
Extracting PTX file and ptxas options    1: pr_base.1.sm_75.ptx -arch=sm_75
 freq
-L1D_metrics                            0 # memory access runtime profiling for L1 data cache
-IPC_per_prof_interval                    0 # IPC per profiling interval
-instruction_monitor                    0 # Instruction monitor
-noncoal_metrics                        0 # memory access runtime profiling for shared memory
-L2_metrics                             0 # memory access runtime profiling for L2 cache
-DRAM_metrics                           0 # memory access runtime profiling for DRAM
-Shmem_metrics                          0 # memory access runtime profiling for noncoalesced accesses
-store_enable                           0 # Enable stores for memory profiling
-accumulate_stats                       0 # Accumulate stats for the memory profiling
-dump_enable                            0 # Process dump enable flag - (def = 0)
-flush_l1d                              0 # Enable flushings for L1D caches - (default = 0)
-flush_l2                               0 # Enable flushings for L2 caches - (default = 0)
-flush_dram                             0 # Enable flushings for DRAM - (default = 0)
-flush_noncoalesceds                    0 # Enable flushings for non coalesced accesses - (default = 0)
-flush_shmems                           0 # Enable flushings for shared memory accesses - (default = 0)
-error_percentage          21474836480001 # Error percentage for the flushes - (default = 1)
-dump_sampling_cycle       21474836485000 # Dump sampling frequency - (default = 5000)
-flush_acc_type                         2 # Flush access types
-monitor_sampling_cycle                 5000 # Monitoring sampling cycle - (default = 5000)
DRAM Timing Options:
nbk                                    16 # number of banks
CCD                                     4 # column to column delay
RRD                                    12 # minimal delay between activation of rows in different banks
RCD                                    24 # row to column delay
RAS                                    55 # time needed to activate row
RP                                     24 # time needed to precharge (deactivate) row
RC                                     78 # row cycle time
CDLR                                   10 # switching from write to read (changes tWTR)
WR                                     24 # last data-in to row precharge
CL                                     24 # CAS latency
WL                                      8 # Write latency
nbkgrp                                  4 # number of bank groups
CCDL                                    6 # column to column delay between accesses to different bank groups
RTPL                                    4 # read to precharge delay between accesses to different bank groups
Total number of memory sub partition = 24
addr_dec_mask[CHIP]  = 0000000000000000 	high:64 low:0
addr_dec_mask[BK]    = 0000000000007080 	high:15 low:7
addr_dec_mask[ROW]   = 000000000fff8000 	high:28 low:15
addr_dec_mask[COL]   = 0000000000000f7f 	high:12 low:0
addr_dec_mask[BURST] = 000000000000001f 	high:5 low:0
sub_partition_id_mask = 0000000000000080
GPGPU-Sim uArch: clock freqs: 1365000000.000000:1365000000.000000:1365000000.000000:3500500000.000000
GPGPU-Sim uArch: clock periods: 0.00000000073260073260:0.00000000073260073260:0.00000000073260073260:0.00000000028567347522
*** Initializing Memory Statistics ***
GPGPU-Sim uArch: performance model initialization complete.
self exe links to: /home/pars/Documents/sim_7/pr_base
self exe links to: /home/pars/Documents/sim_7/pr_base
11.0
GPGPU-Sim PTX: __cudaRegisterFatBinary, fat_cubin_handle = 1, filename=default
self exe links to: /home/pars/Documents/sim_7/pr_base
Running md5sum using "md5sum /home/pars/Documents/sim_7/pr_base "
self exe links to: /home/pars/Documents/sim_7/pr_base
Extracting specific PTX file named pr_base.1.sm_75.ptx 
GPGPU-Sim PTX: __cudaRegisterFunction _ZN3cub11EmptyKernelIvEEvv : hostFun 0x0x55e4cdc8f2c8, fat_cubin_handle = 1
GPGPU-Sim PTX: Parsing pr_base.1.sm_75.ptx
GPGPU-Sim PTX: allocating global region for "_ZN37_INTERNAL_61f75dc7_7_base_cu_297024296thrust6system6detail10sequential3seqE" from 0x100 to 0x101 (global memory space)
GPGPU-Sim PTX: allocating global region for "_ZN37_INTERNAL_61f75dc7_7_base_cu_297024296thrust12placeholders2_1E" from 0x101 to 0x102 (global memory space)
GPGPU-Sim PTX: allocating global region for "_ZN37_INTERNAL_61f75dc7_7_base_cu_297024296thrust12placeholders2_2E" from 0x102 to 0x103 (global memory space)
GPGPU-Sim PTX: allocating global region for "_ZN37_INTERNAL_61f75dc7_7_base_cu_297024296thrust12placeholders2_3E" from 0x103 to 0x104 (global memory space)
GPGPU-Sim PTX: allocating global region for "_ZN37_INTERNAL_61f75dc7_7_base_cu_297024296thrust12placeholders2_4E" from 0x104 to 0x105 (global memory space)
GPGPU-Sim PTX: allocating global region for "_ZN37_INTERNAL_61f75dc7_7_base_cu_297024296thrust12placeholders2_5E" from 0x105 to 0x106 (global memory space)
GPGPU-Sim PTX: allocating global region for "_ZN37_INTERNAL_61f75dc7_7_base_cu_297024296thrust12placeholders2_6E" from 0x106 to 0x107 (global memory space)
GPGPU-Sim PTX: allocating global region for "_ZN37_INTERNAL_61f75dc7_7_base_cu_297024296thrust12placeholders2_7E" from 0x107 to 0x108 (global memory space)
GPGPU-Sim PTX: allocating global region for "_ZN37_INTERNAL_61f75dc7_7_base_cu_297024296thrust12placeholders2_8E" from 0x108 to 0x109 (global memory space)
GPGPU-Sim PTX: allocating global region for "_ZN37_INTERNAL_61f75dc7_7_base_cu_297024296thrust12placeholders2_9E" from 0x109 to 0x10a (global memory space)
GPGPU-Sim PTX: allocating global region for "_ZN37_INTERNAL_61f75dc7_7_base_cu_297024296thrust12placeholders3_10E" from 0x10a to 0x10b (global memory space)
GPGPU-Sim PTX: instruction assembly for function '_Z7contribiPfPiS_'...   done.
GPGPU-Sim PTX: Warning -- ignoring pragma 'nounroll'
GPGPU-Sim PTX: instruction assembly for function '_Z9pull_stepiPKmPKiPfS3_'...   done.
GPGPU-Sim PTX: allocating shared region for "_ZZ6l1normiPfS_S_fE12temp_storage" from 0x0 to 0x2c (shared memory space)
GPGPU-Sim PTX: instruction assembly for function '_Z6l1normiPfS_S_f'...   done.
GPGPU-Sim PTX: allocating shared region for "_ZZ10pull_fusediPKmPKiPfS3_S3_fE12temp_storage" from 0x0 to 0x2c (shared memory space)
GPGPU-Sim PTX: Warning -- ignoring pragma 'nounroll'
GPGPU-Sim PTX: instruction assembly for function '_Z10pull_fusediPKmPKiPfS3_S3_f'...   done.
GPGPU-Sim PTX: instruction assembly for function '_ZN3cub11EmptyKernelIvEEvv'...   done.
GPGPU-Sim PTX: finished parsing EMBEDDED .ptx file pr_base.1.sm_75.ptx
GPGPU-Sim PTX: loading globals with explicit initializers... 
GPGPU-Sim PTX: finished loading globals (0 bytes total).
GPGPU-Sim PTX: loading constants with explicit initializers...  done.
GPGPU-Sim PTX: Loading PTXInfo from pr_base.1.sm_75.ptx
GPGPU-Sim PTX: Kernel '_ZN3cub11EmptyKernelIvEEvv' : regs=4, lmem=0, smem=0, cmem=352
GPGPU-Sim PTX: Kernel '_Z10pull_fusediPKmPKiPfS3_S3_f' : regs=44, lmem=0, smem=44, cmem=404
GPGPU-Sim PTX: Kernel '_Z6l1normiPfS_S_f' : regs=18, lmem=0, smem=44, cmem=388
GPGPU-Sim PTX: Kernel '_Z9pull_stepiPKmPKiPfS3_' : regs=43, lmem=0, smem=0, cmem=392
GPGPU-Sim PTX: Kernel '_Z7contribiPfPiS_' : regs=15, lmem=0, smem=0, cmem=384
GPGPU-Sim PTX: __cudaRegisterFunction _Z10pull_fusediPKmPKiPfS3_S3_f : hostFun 0x0x55e4cdc8ea62, fat_cubin_handle = 1
GPGPU-Sim PTX: __cudaRegisterFunction _Z6l1normiPfS_S_f : hostFun 0x0x55e4cdc8e858, fat_cubin_handle = 1
GPGPU-Sim PTX: __cudaRegisterFunction _Z9pull_stepiPKmPKiPfS3_ : hostFun 0x0x55e4cdc8e69a, fat_cubin_handle = 1
GPGPU-Sim PTX: __cudaRegisterFunction _Z7contribiPfPiS_ : hostFun 0x0x55e4cdc8e4df, fat_cubin_handle = 1
GPGPU-Sim PTX: __cudaRegisterVar: hostVar = 0x55e4cdc906f5; deviceAddress = _ZN37_INTERNAL_61f75dc7_7_base_cu_297024296thrust6system6detail10sequential3seqE; deviceName = _ZN37_INTERNAL_61f75dc7_7_base_cu_297024296thrust6system6detail10sequential3seqE
GPGPU-Sim PTX: __cudaRegisterVar: Registering const memory space of 1 bytes
GPGPU-Sim PTX registering global _ZN37_INTERNAL_61f75dc7_7_base_cu_297024296thrust6system6detail10sequential3seqE hostVar to name mapping
GPGPU-Sim PTX: __cudaRegisterVar: hostVar = 0x55e4cdc90830; deviceAddress = _ZN37_INTERNAL_61f75dc7_7_base_cu_297024296thrust12placeholders2_1E; deviceName = _ZN37_INTERNAL_61f75dc7_7_base_cu_297024296thrust12placeholders2_1E
GPGPU-Sim PTX: __cudaRegisterVar: Registering const memory space of 1 bytes
GPGPU-Sim PTX registering global _ZN37_INTERNAL_61f75dc7_7_base_cu_297024296thrust12placeholders2_1E hostVar to name mapping
GPGPU-Sim PTX: __cudaRegisterVar: hostVar = 0x55e4cdc90831; deviceAddress = _ZN37_INTERNAL_61f75dc7_7_base_cu_297024296thrust12placeholders2_2E; deviceName = _ZN37_INTERNAL_61f75dc7_7_base_cu_297024296thrust12placeholders2_2E
GPGPU-Sim PTX: __cudaRegisterVar: Registering const memory space of 1 bytes
GPGPU-Sim PTX registering global _ZN37_INTERNAL_61f75dc7_7_base_cu_297024296thrust12placeholders2_2E hostVar to name mapping
GPGPU-Sim PTX: __cudaRegisterVar: hostVar = 0x55e4cdc90832; deviceAddress = _ZN37_INTERNAL_61f75dc7_7_base_cu_297024296thrust12placeholders2_3E; deviceName = _ZN37_INTERNAL_61f75dc7_7_base_cu_297024296thrust12placeholders2_3E
GPGPU-Sim PTX: __cudaRegisterVar: Registering const memory space of 1 bytes
GPGPU-Sim PTX registering global _ZN37_INTERNAL_61f75dc7_7_base_cu_297024296thrust12placeholders2_3E hostVar to name mapping
GPGPU-Sim PTX: __cudaRegisterVar: hostVar = 0x55e4cdc90833; deviceAddress = _ZN37_INTERNAL_61f75dc7_7_base_cu_297024296thrust12placeholders2_4E; deviceName = _ZN37_INTERNAL_61f75dc7_7_base_cu_297024296thrust12placeholders2_4E
GPGPU-Sim PTX: __cudaRegisterVar: Registering const memory space of 1 bytes
GPGPU-Sim PTX registering global _ZN37_INTERNAL_61f75dc7_7_base_cu_297024296thrust12placeholders2_4E hostVar to name mapping
GPGPU-Sim PTX: __cudaRegisterVar: hostVar = 0x55e4cdc90834; deviceAddress = _ZN37_INTERNAL_61f75dc7_7_base_cu_297024296thrust12placeholders2_5E; deviceName = _ZN37_INTERNAL_61f75dc7_7_base_cu_297024296thrust12placeholders2_5E
GPGPU-Sim PTX: __cudaRegisterVar: Registering const memory space of 1 bytes
GPGPU-Sim PTX registering global _ZN37_INTERNAL_61f75dc7_7_base_cu_297024296thrust12placeholders2_5E hostVar to name mapping
GPGPU-Sim PTX: __cudaRegisterVar: hostVar = 0x55e4cdc90835; deviceAddress = _ZN37_INTERNAL_61f75dc7_7_base_cu_297024296thrust12placeholders2_6E; deviceName = _ZN37_INTERNAL_61f75dc7_7_base_cu_297024296thrust12placeholders2_6E
GPGPU-Sim PTX: __cudaRegisterVar: Registering const memory space of 1 bytes
GPGPU-Sim PTX registering global _ZN37_INTERNAL_61f75dc7_7_base_cu_297024296thrust12placeholders2_6E hostVar to name mapping
GPGPU-Sim PTX: __cudaRegisterVar: hostVar = 0x55e4cdc90836; deviceAddress = _ZN37_INTERNAL_61f75dc7_7_base_cu_297024296thrust12placeholders2_7E; deviceName = _ZN37_INTERNAL_61f75dc7_7_base_cu_297024296thrust12placeholders2_7E
GPGPU-Sim PTX: __cudaRegisterVar: Registering const memory space of 1 bytes
GPGPU-Sim PTX registering global _ZN37_INTERNAL_61f75dc7_7_base_cu_297024296thrust12placeholders2_7E hostVar to name mapping
GPGPU-Sim PTX: __cudaRegisterVar: hostVar = 0x55e4cdc90837; deviceAddress = _ZN37_INTERNAL_61f75dc7_7_base_cu_297024296thrust12placeholders2_8E; deviceName = _ZN37_INTERNAL_61f75dc7_7_base_cu_297024296thrust12placeholders2_8E
GPGPU-Sim PTX: __cudaRegisterVar: Registering const memory space of 1 bytes
GPGPU-Sim PTX registering global _ZN37_INTERNAL_61f75dc7_7_base_cu_297024296thrust12placeholders2_8E hostVar to name mapping
GPGPU-Sim PTX: __cudaRegisterVar: hostVar = 0x55e4cdc90838; deviceAddress = _ZN37_INTERNAL_61f75dc7_7_base_cu_297024296thrust12placeholders2_9E; deviceName = _ZN37_INTERNAL_61f75dc7_7_base_cu_297024296thrust12placeholders2_9E
GPGPU-Sim PTX: __cudaRegisterVar: Registering const memory space of 1 bytes
GPGPU-Sim PTX registering global _ZN37_INTERNAL_61f75dc7_7_base_cu_297024296thrust12placeholders2_9E hostVar to name mapping
GPGPU-Sim PTX: __cudaRegisterVar: hostVar = 0x55e4cdc90839; deviceAddress = _ZN37_INTERNAL_61f75dc7_7_base_cu_297024296thrust12placeholders3_10E; deviceName = _ZN37_INTERNAL_61f75dc7_7_base_cu_297024296thrust12placeholders3_10E
GPGPU-Sim PTX: __cudaRegisterVar: Registering const memory space of 1 bytes
GPGPU-Sim PTX registering global _ZN37_INTERNAL_61f75dc7_7_base_cu_297024296thrust12placeholders3_10E hostVar to name mapping
PageRank by Xuhao Chen
Reading (.mtx) input file ../CudaBenchmarks/gardenia/datasets/asia_osm.mtx
Removing redundent edges... 0 redundent edges are removed
|V| 11950757 |E| 12711603
This graph maintains both incomming and outgoing edge-list
Launching CUDA PR solver (46683 CTAs, 256 threads/CTA) ...
GPGPU-Sim PTX: Setting up arguments for 4 bytes starting at 0x7fffe684bf8c..
GPGPU-Sim PTX: Setting up arguments for 8 bytes starting at 0x7fffe684bf80..
GPGPU-Sim PTX: Setting up arguments for 8 bytes starting at 0x7fffe684bf78..
GPGPU-Sim PTX: Setting up arguments for 8 bytes starting at 0x7fffe684bf70..

GPGPU-Sim PTX: cudaLaunch for 0x0x55e4cdc8e4df (mode=performance simulation) on stream 0
GPGPU-Sim PTX: finding reconvergence points for '_Z7contribiPfPiS_'...
GPGPU-Sim PTX: Finding dominators for '_Z7contribiPfPiS_'...
GPGPU-Sim PTX: Finding immediate dominators for '_Z7contribiPfPiS_'...
GPGPU-Sim PTX: Finding postdominators for '_Z7contribiPfPiS_'...
GPGPU-Sim PTX: Finding immediate postdominators for '_Z7contribiPfPiS_'...
GPGPU-Sim PTX: pre-decoding instructions for '_Z7contribiPfPiS_'...
GPGPU-Sim PTX: reconvergence points for _Z7contribiPfPiS_...
GPGPU-Sim PTX:  1 (potential) branch divergence @  PC=0x048 (pr_base.1.sm_75.ptx:50) @%p1 bra $L__BB0_2;

GPGPU-Sim PTX:    immediate post dominator      @  PC=0x0b0 (pr_base.1.sm_75.ptx:66) ret;

GPGPU-Sim PTX: ... end of reconvergence points for _Z7contribiPfPiS_
GPGPU-Sim PTX: ... done pre-decoding instructions for '_Z7contribiPfPiS_'.
GPGPU-Sim PTX: pushing kernel '_Z7contribiPfPiS_' to stream 0, gridDim= (46683,1,1) blockDim = (256,1,1) 
GPGPU-Sim uArch: Shader 0 bind to kernel 1 '_Z7contribiPfPiS_'
GPGPU-Sim uArch: CTA/core = 4, limited by: threads
GPGPU-Sim: Reconfigure L1 cache to 64KB
GPGPU-Sim uArch: Shader 1 bind to kernel 1 '_Z7contribiPfPiS_'
GPGPU-Sim uArch: Shader 2 bind to kernel 1 '_Z7contribiPfPiS_'
GPGPU-Sim uArch: Shader 3 bind to kernel 1 '_Z7contribiPfPiS_'
GPGPU-Sim uArch: Shader 4 bind to kernel 1 '_Z7contribiPfPiS_'
GPGPU-Sim uArch: Shader 5 bind to kernel 1 '_Z7contribiPfPiS_'
GPGPU-Sim uArch: Shader 6 bind to kernel 1 '_Z7contribiPfPiS_'
GPGPU-Sim uArch: Shader 7 bind to kernel 1 '_Z7contribiPfPiS_'
GPGPU-Sim uArch: Shader 8 bind to kernel 1 '_Z7contribiPfPiS_'
GPGPU-Sim uArch: Shader 9 bind to kernel 1 '_Z7contribiPfPiS_'
GPGPU-Sim uArch: Shader 10 bind to kernel 1 '_Z7contribiPfPiS_'
GPGPU-Sim uArch: Shader 11 bind to kernel 1 '_Z7contribiPfPiS_'
GPGPU-Sim uArch: Shader 12 bind to kernel 1 '_Z7contribiPfPiS_'
GPGPU-Sim uArch: Shader 13 bind to kernel 1 '_Z7contribiPfPiS_'
GPGPU-Sim uArch: Shader 14 bind to kernel 1 '_Z7contribiPfPiS_'
GPGPU-Sim uArch: Shader 15 bind to kernel 1 '_Z7contribiPfPiS_'
GPGPU-Sim uArch: Shader 16 bind to kernel 1 '_Z7contribiPfPiS_'
GPGPU-Sim uArch: Shader 17 bind to kernel 1 '_Z7contribiPfPiS_'
GPGPU-Sim uArch: Shader 18 bind to kernel 1 '_Z7contribiPfPiS_'
GPGPU-Sim uArch: Shader 19 bind to kernel 1 '_Z7contribiPfPiS_'
GPGPU-Sim uArch: Shader 20 bind to kernel 1 '_Z7contribiPfPiS_'
GPGPU-Sim uArch: Shader 21 bind to kernel 1 '_Z7contribiPfPiS_'
GPGPU-Sim uArch: Shader 22 bind to kernel 1 '_Z7contribiPfPiS_'
GPGPU-Sim uArch: Shader 23 bind to kernel 1 '_Z7contribiPfPiS_'
GPGPU-Sim uArch: Shader 24 bind to kernel 1 '_Z7contribiPfPiS_'
GPGPU-Sim uArch: Shader 25 bind to kernel 1 '_Z7contribiPfPiS_'
GPGPU-Sim uArch: Shader 26 bind to kernel 1 '_Z7contribiPfPiS_'
GPGPU-Sim uArch: Shader 27 bind to kernel 1 '_Z7contribiPfPiS_'
GPGPU-Sim uArch: Shader 28 bind to kernel 1 '_Z7contribiPfPiS_'
GPGPU-Sim uArch: Shader 29 bind to kernel 1 '_Z7contribiPfPiS_'
Destroy streams for kernel 1: size 0
kernel_name = _Z7contribiPfPiS_ 
kernel_launch_uid = 1 
gpu_sim_cycle = 622278
gpu_sim_insn = 262917655
gpu_ipc =     422.5083
gpu_tot_sim_cycle = 622278
gpu_tot_sim_insn = 262917655
gpu_tot_ipc =     422.5083
gpu_tot_issued_cta = 46683
gpu_occupancy = 90.8242% 
gpu_tot_occupancy = 90.8242% 
max_total_param_size = 0
gpu_stall_dramfull = 430
gpu_stall_icnt2sh    = 0
partiton_level_parallism =       7.2018
partiton_level_parallism_total  =       7.2018
partiton_level_parallism_util =       7.2790
partiton_level_parallism_util_total  =       7.2790
L2_BW  =     314.5756 GB/Sec
L2_BW_total  =     314.5756 GB/Sec
gpu_total_sim_rate=42577

========= Core cache stats =========
L1I_cache:
	L1I_total_cache_accesses = 0
	L1I_total_cache_misses = 0
	L1I_total_cache_pending_hits = 0
	L1I_total_cache_reservation_fails = 0
L1D_cache:
	L1D_cache_core[0]: Access = 149760, Miss = 149760, Miss_rate = 1.000, Pending_hits = 0, Reservation_fails = 39560
	L1D_cache_core[1]: Access = 149472, Miss = 149472, Miss_rate = 1.000, Pending_hits = 0, Reservation_fails = 39462
	L1D_cache_core[2]: Access = 150144, Miss = 150144, Miss_rate = 1.000, Pending_hits = 0, Reservation_fails = 40109
	L1D_cache_core[3]: Access = 149856, Miss = 149856, Miss_rate = 1.000, Pending_hits = 0, Reservation_fails = 39550
	L1D_cache_core[4]: Access = 149184, Miss = 149184, Miss_rate = 1.000, Pending_hits = 0, Reservation_fails = 39011
	L1D_cache_core[5]: Access = 149472, Miss = 149472, Miss_rate = 1.000, Pending_hits = 0, Reservation_fails = 40170
	L1D_cache_core[6]: Access = 149088, Miss = 149088, Miss_rate = 1.000, Pending_hits = 0, Reservation_fails = 40766
	L1D_cache_core[7]: Access = 149376, Miss = 149376, Miss_rate = 1.000, Pending_hits = 0, Reservation_fails = 39032
	L1D_cache_core[8]: Access = 149280, Miss = 149280, Miss_rate = 1.000, Pending_hits = 0, Reservation_fails = 40016
	L1D_cache_core[9]: Access = 149472, Miss = 149472, Miss_rate = 1.000, Pending_hits = 0, Reservation_fails = 39928
	L1D_cache_core[10]: Access = 149376, Miss = 149376, Miss_rate = 1.000, Pending_hits = 0, Reservation_fails = 39603
	L1D_cache_core[11]: Access = 149760, Miss = 149760, Miss_rate = 1.000, Pending_hits = 0, Reservation_fails = 38258
	L1D_cache_core[12]: Access = 149760, Miss = 149760, Miss_rate = 1.000, Pending_hits = 0, Reservation_fails = 39790
	L1D_cache_core[13]: Access = 149280, Miss = 149280, Miss_rate = 1.000, Pending_hits = 0, Reservation_fails = 39420
	L1D_cache_core[14]: Access = 149760, Miss = 149760, Miss_rate = 1.000, Pending_hits = 0, Reservation_fails = 39396
	L1D_cache_core[15]: Access = 149280, Miss = 149280, Miss_rate = 1.000, Pending_hits = 0, Reservation_fails = 40050
	L1D_cache_core[16]: Access = 149184, Miss = 149184, Miss_rate = 1.000, Pending_hits = 0, Reservation_fails = 39135
	L1D_cache_core[17]: Access = 149376, Miss = 149376, Miss_rate = 1.000, Pending_hits = 0, Reservation_fails = 39753
	L1D_cache_core[18]: Access = 149184, Miss = 149184, Miss_rate = 1.000, Pending_hits = 0, Reservation_fails = 40751
	L1D_cache_core[19]: Access = 149280, Miss = 149280, Miss_rate = 1.000, Pending_hits = 0, Reservation_fails = 40228
	L1D_cache_core[20]: Access = 149664, Miss = 149664, Miss_rate = 1.000, Pending_hits = 0, Reservation_fails = 39885
	L1D_cache_core[21]: Access = 148704, Miss = 148704, Miss_rate = 1.000, Pending_hits = 0, Reservation_fails = 40300
	L1D_cache_core[22]: Access = 148896, Miss = 148896, Miss_rate = 1.000, Pending_hits = 0, Reservation_fails = 39531
	L1D_cache_core[23]: Access = 148896, Miss = 148896, Miss_rate = 1.000, Pending_hits = 0, Reservation_fails = 39833
	L1D_cache_core[24]: Access = 149376, Miss = 149376, Miss_rate = 1.000, Pending_hits = 0, Reservation_fails = 40287
	L1D_cache_core[25]: Access = 149376, Miss = 149376, Miss_rate = 1.000, Pending_hits = 0, Reservation_fails = 39320
	L1D_cache_core[26]: Access = 149184, Miss = 149184, Miss_rate = 1.000, Pending_hits = 0, Reservation_fails = 38655
	L1D_cache_core[27]: Access = 149151, Miss = 149151, Miss_rate = 1.000, Pending_hits = 0, Reservation_fails = 40136
	L1D_cache_core[28]: Access = 149280, Miss = 149280, Miss_rate = 1.000, Pending_hits = 0, Reservation_fails = 38974
	L1D_cache_core[29]: Access = 149664, Miss = 149664, Miss_rate = 1.000, Pending_hits = 0, Reservation_fails = 38919
	L1D_total_cache_accesses = 4481535
	L1D_total_cache_misses = 4481535
	L1D_total_cache_miss_rate = 1.0000
	L1D_total_cache_pending_hits = 0
	L1D_total_cache_reservation_fails = 1189828
	L1D_cache_data_port_util = 0.000
	L1D_cache_fill_port_util = 0.161
L1C_cache:
	L1C_total_cache_accesses = 0
	L1C_total_cache_misses = 0
	L1C_total_cache_pending_hits = 0
	L1C_total_cache_reservation_fails = 0
L1T_cache:
	L1T_total_cache_accesses = 0
	L1T_total_cache_misses = 0
	L1T_total_cache_pending_hits = 0
	L1T_total_cache_reservation_fails = 0

Total_core_cache_stats:
	Total_core_cache_stats_breakdown[GLOBAL_ACC_R][HIT] = 0
	Total_core_cache_stats_breakdown[GLOBAL_ACC_R][HIT_RESERVED] = 0
	Total_core_cache_stats_breakdown[GLOBAL_ACC_R][MISS] = 746924
	Total_core_cache_stats_breakdown[GLOBAL_ACC_R][RESERVATION_FAIL] = 1173859
	Total_core_cache_stats_breakdown[GLOBAL_ACC_R][SECTOR_MISS] = 2240766
	Total_core_cache_stats_breakdown[GLOBAL_ACC_R][MSHR_HIT] = 0
	Total_core_cache_stats_breakdown[LOCAL_ACC_R][HIT] = 0
	Total_core_cache_stats_breakdown[LOCAL_ACC_R][HIT_RESERVED] = 0
	Total_core_cache_stats_breakdown[LOCAL_ACC_R][MISS] = 0
	Total_core_cache_stats_breakdown[LOCAL_ACC_R][RESERVATION_FAIL] = 0
	Total_core_cache_stats_breakdown[LOCAL_ACC_R][SECTOR_MISS] = 0
	Total_core_cache_stats_breakdown[LOCAL_ACC_R][MSHR_HIT] = 0
	Total_core_cache_stats_breakdown[CONST_ACC_R][HIT] = 0
	Total_core_cache_stats_breakdown[CONST_ACC_R][HIT_RESERVED] = 0
	Total_core_cache_stats_breakdown[CONST_ACC_R][MISS] = 0
	Total_core_cache_stats_breakdown[CONST_ACC_R][RESERVATION_FAIL] = 0
	Total_core_cache_stats_breakdown[CONST_ACC_R][SECTOR_MISS] = 0
	Total_core_cache_stats_breakdown[CONST_ACC_R][MSHR_HIT] = 0
	Total_core_cache_stats_breakdown[TEXTURE_ACC_R][HIT] = 0
	Total_core_cache_stats_breakdown[TEXTURE_ACC_R][HIT_RESERVED] = 0
	Total_core_cache_stats_breakdown[TEXTURE_ACC_R][MISS] = 0
	Total_core_cache_stats_breakdown[TEXTURE_ACC_R][RESERVATION_FAIL] = 0
	Total_core_cache_stats_breakdown[TEXTURE_ACC_R][SECTOR_MISS] = 0
	Total_core_cache_stats_breakdown[TEXTURE_ACC_R][MSHR_HIT] = 0
	Total_core_cache_stats_breakdown[GLOBAL_ACC_W][HIT] = 0
	Total_core_cache_stats_breakdown[GLOBAL_ACC_W][HIT_RESERVED] = 0
	Total_core_cache_stats_breakdown[GLOBAL_ACC_W][MISS] = 373462
	Total_core_cache_stats_breakdown[GLOBAL_ACC_W][RESERVATION_FAIL] = 15969
	Total_core_cache_stats_breakdown[GLOBAL_ACC_W][SECTOR_MISS] = 1120383
	Total_core_cache_stats_breakdown[GLOBAL_ACC_W][MSHR_HIT] = 0
	Total_core_cache_stats_breakdown[LOCAL_ACC_W][HIT] = 0
	Total_core_cache_stats_breakdown[LOCAL_ACC_W][HIT_RESERVED] = 0
	Total_core_cache_stats_breakdown[LOCAL_ACC_W][MISS] = 0
	Total_core_cache_stats_breakdown[LOCAL_ACC_W][RESERVATION_FAIL] = 0
	Total_core_cache_stats_breakdown[LOCAL_ACC_W][SECTOR_MISS] = 0
	Total_core_cache_stats_breakdown[LOCAL_ACC_W][MSHR_HIT] = 0
	Total_core_cache_stats_breakdown[L1_WRBK_ACC][HIT] = 0
	Total_core_cache_stats_breakdown[L1_WRBK_ACC][HIT_RESERVED] = 0
	Total_core_cache_stats_breakdown[L1_WRBK_ACC][MISS] = 0
	Total_core_cache_stats_breakdown[L1_WRBK_ACC][RESERVATION_FAIL] = 0
	Total_core_cache_stats_breakdown[L1_WRBK_ACC][SECTOR_MISS] = 0
	Total_core_cache_stats_breakdown[L1_WRBK_ACC][MSHR_HIT] = 0
	Total_core_cache_stats_breakdown[L2_WRBK_ACC][HIT] = 0
	Total_core_cache_stats_breakdown[L2_WRBK_ACC][HIT_RESERVED] = 0
	Total_core_cache_stats_breakdown[L2_WRBK_ACC][MISS] = 0
	Total_core_cache_stats_breakdown[L2_WRBK_ACC][RESERVATION_FAIL] = 0
	Total_core_cache_stats_breakdown[L2_WRBK_ACC][SECTOR_MISS] = 0
	Total_core_cache_stats_breakdown[L2_WRBK_ACC][MSHR_HIT] = 0
	Total_core_cache_stats_breakdown[INST_ACC_R][HIT] = 0
	Total_core_cache_stats_breakdown[INST_ACC_R][HIT_RESERVED] = 0
	Total_core_cache_stats_breakdown[INST_ACC_R][MISS] = 0
	Total_core_cache_stats_breakdown[INST_ACC_R][RESERVATION_FAIL] = 0
	Total_core_cache_stats_breakdown[INST_ACC_R][SECTOR_MISS] = 0
	Total_core_cache_stats_breakdown[INST_ACC_R][MSHR_HIT] = 0
	Total_core_cache_stats_breakdown[L1_WR_ALLOC_R][HIT] = 0
	Total_core_cache_stats_breakdown[L1_WR_ALLOC_R][HIT_RESERVED] = 0
	Total_core_cache_stats_breakdown[L1_WR_ALLOC_R][MISS] = 0
	Total_core_cache_stats_breakdown[L1_WR_ALLOC_R][RESERVATION_FAIL] = 0
	Total_core_cache_stats_breakdown[L1_WR_ALLOC_R][SECTOR_MISS] = 0
	Total_core_cache_stats_breakdown[L1_WR_ALLOC_R][MSHR_HIT] = 0
	Total_core_cache_stats_breakdown[L2_WR_ALLOC_R][HIT] = 0
	Total_core_cache_stats_breakdown[L2_WR_ALLOC_R][HIT_RESERVED] = 0
	Total_core_cache_stats_breakdown[L2_WR_ALLOC_R][MISS] = 0
	Total_core_cache_stats_breakdown[L2_WR_ALLOC_R][RESERVATION_FAIL] = 0
	Total_core_cache_stats_breakdown[L2_WR_ALLOC_R][SECTOR_MISS] = 0
	Total_core_cache_stats_breakdown[L2_WR_ALLOC_R][MSHR_HIT] = 0
	Total_core_cache_stats_breakdown[GLOBAL_ACC_R][TOTAL_ACCESS] = 2987690
	Total_core_cache_stats_breakdown[GLOBAL_ACC_W][TOTAL_ACCESS] = 1493845

Total_core_cache_fail_stats:
	Total_core_cache_fail_stats_breakdown[GLOBAL_ACC_R][MISS_QUEUE_FULL] = 1173859
	Total_core_cache_fail_stats_breakdown[GLOBAL_ACC_W][MISS_QUEUE_FULL] = 15969
ctas_completed 46683, Shader 0 warp_id issue ditsribution:
warp_id:
0, 1, 2, 3, 4, 5, 6, 7, 8, 9, 10, 11, 12, 13, 14, 15, 16, 17, 18, 19, 20, 21, 22, 23, 24, 25, 26, 27, 28, 29, 30, 31, 
distro:
8947, 8947, 8947, 8947, 8947, 8947, 8947, 8947, 8993, 8993, 8993, 8993, 8993, 8993, 8993, 8993, 8924, 8924, 8924, 8924, 8924, 8924, 8924, 8924, 9016, 9016, 9016, 9016, 9016, 9016, 9016, 9016, 
gpgpu_n_tot_thrd_icount = 274868736
gpgpu_n_tot_w_icount = 8589648
gpgpu_n_stall_shd_mem = 0
gpgpu_n_mem_read_local = 0
gpgpu_n_mem_write_local = 0
gpgpu_n_mem_read_global = 2987690
gpgpu_n_mem_write_global = 1493845
gpgpu_n_mem_texture = 0
gpgpu_n_mem_const = 0
gpgpu_n_load_insn  = 23901514
gpgpu_n_store_insn = 11950757
gpgpu_n_shmem_insn = 0
gpgpu_n_sstarr_insn = 0
gpgpu_n_tex_insn = 0
gpgpu_n_const_mem_insn = 0
gpgpu_n_param_mem_insn = 47803392
gpgpu_n_shmem_bkconflict = 0
gpgpu_n_cache_bkconflict = 0
gpgpu_n_intrawarp_mshr_merge = 0
gpgpu_n_cmem_portconflict = 0
gpgpu_stall_shd_mem[c_mem][resource_stall] = 0
gpgpu_stall_shd_mem[s_mem][bk_conf] = 0
gpgpu_stall_shd_mem[gl_mem][resource_stall] = 0
gpgpu_stall_shd_mem[gl_mem][coal_stall] = 0
gpgpu_stall_shd_mem[gl_mem][data_port_stall] = 0
gpu_reg_bank_conflict_stalls = 0
Warp Occupancy Distribution:
Stall:3650976	W0_Idle:315286	W0_Scoreboard:61457210	W1:0	W2:0	W3:0	W4:0	W5:12	W6:0	W7:0	W8:0	W9:0	W10:0	W11:0	W12:0	W13:0	W14:0	W15:0	W16:0	W17:0	W18:0	W19:0	W20:0	W21:0	W22:0	W23:0	W24:0	W25:0	W26:0	W27:0	W28:0	W29:0	W30:0	W31:0	W32:8589636
single_issue_nums: WS0:2147418	WS1:2147418	WS2:2147406	WS3:2147406	
dual_issue_nums: WS0:0	WS1:0	WS2:0	WS3:0	
traffic_breakdown_coretomem[GLOBAL_ACC_R] = 23901520 {8:2987690,}
traffic_breakdown_coretomem[GLOBAL_ACC_W] = 59753800 {40:1493845,}
traffic_breakdown_memtocore[GLOBAL_ACC_R] = 119507600 {40:2987690,}
traffic_breakdown_memtocore[GLOBAL_ACC_W] = 11950760 {8:1493845,}
maxmflatency = 1576 
max_icnt2mem_latency = 404 
maxmrqlatency = 1174 
max_icnt2sh_latency = 125 
averagemflatency = 418 
avg_icnt2mem_latency = 44 
avg_mrq_latency = 107 
avg_icnt2sh_latency = 3 
mrq_lat_table:343925 	65061 	99769 	179740 	318710 	538837 	870112 	551421 	338744 	46377 	48 	0 	0 	0 	0 	0 	0 	0 	0 	0 	0 	0 	0 	0 	0 	0 	0 	0 	0 	0 	0 	0 	
dq_lat_table:0 	0 	0 	0 	0 	0 	0 	0 	0 	0 	0 	0 	0 	0 	0 	0 	0 	0 	0 	0 	0 	0 	0 	0 	0 	0 	0 	0 	0 	0 	0 	0 	
mf_lat_table:0 	0 	0 	0 	0 	0 	0 	1389235 	1898726 	1182451 	11123 	0 	0 	0 	0 	0 	0 	0 	0 	0 	0 	0 	0 	0 	0 	0 	0 	0 	0 	0 	0 	0 	
icnt2mem_lat_table:0 	0 	0 	0 	0 	4203199 	274370 	1165 	2801 	0 	0 	0 	0 	0 	0 	0 	0 	0 	0 	0 	0 	0 	0 	0 	
icnt2sh_lat_table:0 	3515699 	612498 	240948 	87531 	22693 	2166 	0 	0 	0 	0 	0 	0 	0 	0 	0 	0 	0 	0 	0 	0 	0 	0 	0 	
mf_lat_pw_table:0 	0 	0 	0 	0 	0 	0 	0 	593 	24 	0 	0 	0 	0 	0 	0 	0 	0 	0 	0 	0 	0 	0 	0 	0 	0 	0 	0 	0 	0 	0 	0 	
maximum concurrent accesses to same row:
dram[0]:        64        64        64        64        64        64        64        64        64        64        64        64        64        64        64        64 
dram[1]:        64        64        64        64        64        64        64        64        64        64        64        64        64        64        64        64 
dram[2]:        64        64        64        64        64        64        64        64        64        64        64        64        64        64        64        64 
dram[3]:        64        64        64        64        64        64        64        64        64        64        64        64        64        64        64        64 
dram[4]:        64        64        64        64        64        64        64        64        64        64        64        64        64        64        64        64 
dram[5]:        64        64        64        64        64        64        64        64        64        64        64        64        64        64        64        64 
dram[6]:        64        64        64        64        64        64        64        64        64        64        64        64        64        64        64        64 
dram[7]:        64        64        64        64        64        64        64        64        64        64        64        64        64        64        64        64 
dram[8]:        64        64        64        64        64        64        64        64        64        64        64        64        64        64        64        64 
dram[9]:        64        64        64        64        64        64        64        64        64        64        64        64        64        64        64        64 
dram[10]:        64        64        64        64        64        64        64        64        64        64        64        64        64        64        64        64 
dram[11]:        64        64        64        64        64        64        64        64        64        64        64        64        64        64        64        64 
maximum service time to same row:
dram[0]:      6356      6084      6366      6371      6439      6481      5738      5677      5744      5683      5804      5803      5831      5830      7351      7355 
dram[1]:      6114      6146      6336      6337      6373      6376      5812      5616      5768      5622      5799      5813      5807      5820      7308      7299 
dram[2]:      6060      6121      6343      6331      6393      6396      5555      5585      5561      5591      5810      5809      5817      5817      7305      7303 
dram[3]:      6145      6078      6339      6343      6462      6465      5646      5707      5652      5713      5800      5792      5808      5809      7324      7314 
dram[4]:      6356      6083      6373      6376      6456      6484      5737      5676      5744      5682      5802      5802      5829      5829      7319      7320 
dram[5]:      6116      6149      6340      6344      6405      6408      5812      5616      5768      5623      5799      5813      5808      5822      7312      7321 
dram[6]:      6060      6118      6343      6330      6386      6401      5555      5585      5562      5592      5810      5809      5819      5818      7326      7333 
dram[7]:      6143      6071      6347      6343      6479      6483      5646      5707      5653      5714      5800      5792      5810      5810      7324      7334 
dram[8]:      6356      6088      6373      6376      6445      6486      5737      5676      5744      5683      5804      5803      5831      5830      7318      7328 
dram[9]:      6116      6149      6340      6344      6426      6430      5812      5616      5768      5623      5799      5813      5808      5822      7325      7322 
dram[10]:      6060      6118      6343      6330      6386      6402      5555      5585      5562      5592      5810      5809      5819      5818      7326      7343 
dram[11]:      6145      6081      6340      6344      6458      6461      5646      5707      5653      5714      5800      5792      5810      5810      7351      7353 
average row accesses per activate:
dram[0]: 36.561844 37.424892 33.951363 34.762947 35.407707 35.122738 33.745174 34.274509 36.236023 37.401711 32.750469 32.873821 33.186314 32.935848 32.567165 33.249523 
dram[1]: 35.958763 36.182571 33.624279 33.240002 34.634922 35.991753 34.341846 34.007782 35.938396 36.691822 32.812031 33.504799 32.147331 33.186314 31.283154 32.206642 
dram[2]: 38.329670 39.191010 33.178707 35.114689 35.843941 36.827003 33.486591 33.615383 36.846317 36.154957 32.685394 32.206642 33.249523 33.829456 32.506519 31.339317 
dram[3]: 36.949154 37.338329 33.178707 34.152641 34.842316 34.703777 34.140625 34.007782 36.997887 36.608788 32.935848 34.362206 33.961090 33.312977 32.446098 32.088234 
dram[4]: 36.561844 36.485355 33.305344 33.887379 35.770493 36.066116 34.007782 32.734081 36.762604 37.231915 32.935848 33.249523 32.088234 33.829456 31.115864 32.325928 
dram[5]: 37.264957 36.715790 33.115749 33.953308 34.981964 35.991753 35.392712 34.759445 36.530270 37.234043 33.569229 33.186314 33.633911 34.634922 31.395683 31.566004 
dram[6]: 38.841869 38.841869 33.241905 33.432949 36.140785 36.291061 33.883720 35.608963 37.796978 38.293217 33.440613 33.829456 33.123341 33.569229 32.325928 32.506519 
dram[7]: 37.344753 37.027599 33.626205 33.953308 35.551933 36.140785 33.623077 34.015564 37.154991 37.473232 33.698841 34.160469 34.093750 34.093750 32.812031 32.567165 
dram[8]: 37.344753 37.106384 32.258781 33.561539 35.193550 35.917694 32.926552 34.349705 36.378380 37.468952 33.630058 33.307251 33.569229 33.633911 32.567165 32.385899 
dram[9]: 36.561844 36.638657 33.821705 34.152641 34.772907 36.140785 34.349705 35.108433 36.378380 36.993656 33.764023 34.294697 32.689140 33.569229 31.912249 32.446098 
dram[10]: 36.793247 36.715790 33.241905 33.497120 35.917694 35.770493 34.621780 34.828686 36.382538 36.919830 32.998108 33.186314 33.123341 34.227451 31.970695 32.325928 
dram[11]: 37.505375 38.498898 33.953308 34.219608 34.634922 35.052208 34.417324 34.148438 37.393162 36.534447 32.088234 32.446098 32.088234 32.998108 31.283154 31.227192 
average row locality = 3352744/97341 = 34.443287
number of total memory accesses made:
dram[0]:         0         0         0         0         0         0         0         0         0         0         0         0         0         0         0         0 
dram[1]:         0         0         0         0         0         0         0         0         0         0         0         0         0         0         0         0 
dram[2]:         0         0         0         0         0         0         0         0         0         0         0         0         0         0         0         0 
dram[3]:         0         0         0         0         0         0         0         0         0         0         0         0         0         0         0         0 
dram[4]:         0         0         0         0         0         0         0         0         0         0         0         0         0         0         0         0 
dram[5]:         0         0         0         0         0         0         0         0         0         0         0         0         0         0         0         0 
dram[6]:         0         0         0         0         0         0         0         0         0         0         0         0         0         0         0         0 
dram[7]:         0         0         0         0         0         0         0         0         0         0         0         0         0         0         0         0 
dram[8]:         0         0         0         0         0         0         0         0         0         0         0         0         0         0         0         0 
dram[9]:         0         0         0         0         0         0         0         0         0         0         0         0         0         0         0         0 
dram[10]:         0         0         0         0         0         0         0         0         0         0         0         0         0         0         0         0 
dram[11]:         0         0         0         0         0         0         0         0         0         0         0         0         0         0         0         0 
total accesses: 0
min_bank_accesses = 0!
min_chip_accesses = 0!
number of total read accesses:
dram[0]:     15552     15552     15552     15552     15552     15552     15576     15576     15600     15600     15552     15552     15552     15552     15552     15552 
dram[1]:     15552     15552     15552     15552     15552     15552     15576     15576     15600     15600     15552     15552     15552     15552     15552     15552 
dram[2]:     15552     15552     15552     15552     15552     15552     15576     15576     15600     15597     15552     15552     15552     15552     15552     15552 
dram[3]:     15552     15549     15552     15552     15552     15552     15576     15576     15596     15596     15552     15552     15552     15552     15552     15552 
dram[4]:     15552     15552     15552     15552     15552     15552     15576     15576     15596     15596     15552     15552     15552     15552     15552     15552 
dram[5]:     15552     15552     15552     15552     15552     15552     15580     15580     15596     15596     15552     15552     15552     15552     15552     15552 
dram[6]:     15552     15552     15552     15552     15552     15552     15580     15580     15596     15596     15552     15552     15552     15552     15552     15552 
dram[7]:     15552     15552     15552     15552     15552     15552     15580     15580     15596     15596     15552     15552     15552     15552     15552     15552 
dram[8]:     15552     15552     15552     15552     15552     15552     15580     15580     15596     15596     15552     15552     15552     15552     15552     15552 
dram[9]:     15552     15552     15552     15552     15552     15552     15580     15580     15596     15596     15552     15552     15552     15552     15552     15552 
dram[10]:     15552     15552     15552     15552     15552     15552     15580     15580     15596     15596     15552     15552     15552     15552     15552     15552 
dram[11]:     15552     15552     15552     15552     15552     15552     15580     15580     15596     15596     15552     15552     15552     15552     15552     15552 
total dram reads = 2987690
bank skew: 15600/15549 = 1.00
chip skew: 248976/248965 = 1.00
number of total write accesses:
dram[0]:      7552      7552      7596      7596      7616      7616      7616      7616      7608      7616      7616      7616      7616      7616      7616      7616 
dram[1]:      7552      7552      7596      7596      7616      7616      7616      7616      7608      7608      7616      7616      7616      7616      7616      7616 
dram[2]:      7552      7552      7600      7600      7616      7616      7616      7616      7608      7608      7608      7616      7616      7616      7616      7616 
dram[3]:      7552      7552      7600      7600      7616      7616      7616      7616      7616      7612      7616      7616      7616      7616      7616      7616 
dram[4]:      7552      7552      7600      7600      7616      7616      7616      7616      7612      7612      7616      7616      7616      7616      7616      7616 
dram[5]:      7552      7552      7600      7600      7616      7616      7616      7616      7608      7616      7616      7616      7616      7616      7616      7616 
dram[6]:      7552      7552      7600      7600      7616      7616      7616      7616      7616      7616      7616      7616      7616      7616      7616      7616 
dram[7]:      7552      7552      7600      7600      7616      7616      7616      7616      7616      7616      7616      7616      7616      7616      7616      7616 
dram[8]:      7552      7552      7600      7600      7616      7616      7616      7616      7608      7608      7608      7604      7616      7616      7616      7616 
dram[9]:      7552      7552      7600      7600      7616      7616      7616      7616      7608      7608      7616      7616      7616      7616      7616      7616 
dram[10]:      7552      7552      7600      7600      7616      7616      7616      7616      7616      7616      7616      7616      7616      7616      7616      7616 
dram[11]:      7552      7552      7600      7600      7616      7616      7616      7616      7616      7616      7616      7616      7616      7616      7616      7616 
total dram writes = 1460216
bank skew: 7616/7552 = 1.01
chip skew: 121696/121660 = 1.00
average mf latency per bank:
dram[0]:        420       423       429       433       413       414       412       415       418       421       432       436       419       420       418       421
dram[1]:        410       416       425       429       417       420       410       413       417       421       436       437       413       417       411       413
dram[2]:        414       418       425       428       410       417       410       414       412       420       435       434       413       419       409       412
dram[3]:        417       421       425       430       415       417       415       413       413       416       435       438       418       420       411       415
dram[4]:        415       417       431       431       418       421       415       418       417       421       438       436       421       425       412       412
dram[5]:        414       413       424       427       417       419       411       409       412       416       432       434       412       412       410       412
dram[6]:        417       422       427       430       417       420       414       421       416       421       434       438       418       422       414       416
dram[7]:        420       426       427       430       420       419       417       419       421       423       438       443       424       426       414       416
dram[8]:        424       430       432       435       421       426       416       420       420       425       436       437       424       426       416       419
dram[9]:        417       418       425       428       420       421       409       411       412       416       437       437       416       418       408       410
dram[10]:        412       414       420       425       412       417       408       414       419       422       433       435       422       426       413       416
dram[11]:        418       422       429       431       419       424       417       419       413       420       436       436       419       422       413       416
maximum mf latency per bank:
dram[0]:       1335      1230      1245      1250      1280      1279      1397      1321      1221      1177      1266      1279      1194      1383      1536      1541
dram[1]:       1443      1200      1316      1288      1221      1233      1307      1087      1260      1289      1261      1292      1292      1170      1112      1345
dram[2]:       1165      1302      1337      1174      1173      1148      1196      1086      1304      1303      1186      1143      1372      1272      1237      1349
dram[3]:       1143      1343      1329      1224      1576      1494      1423      1433      1209      1231      1115      1177      1238      1218      1255      1335
dram[4]:       1121      1221      1250      1555      1359      1359      1181      1327      1387      1120      1505      1502      1288      1261      1452      1467
dram[5]:       1071      1100      1266      1255      1226      1248      1032       967      1068      1140      1238      1296      1279      1274      1161      1270
dram[6]:       1497      1123      1338      1217      1214      1211      1335      1179      1163      1257      1215      1241      1119      1124      1204      1271
dram[7]:       1102      1251      1326      1268      1148      1116      1128      1341      1208      1149      1227      1079      1427      1457      1231      1231
dram[8]:       1413      1166      1232      1127      1186      1186      1270      1309      1174      1186      1225      1181      1235      1226      1185      1514
dram[9]:       1138      1178      1177      1195      1298      1118      1316      1256      1181      1167      1028      1172      1443      1087      1152      1291
dram[10]:       1230      1208      1228      1550      1225      1241      1290      1371      1243      1146      1252      1109      1413      1408      1428      1222
dram[11]:       1370      1171      1258      1155      1265      1264      1251      1359      1097      1104      1233      1205      1245      1264      1340      1407

Number of Memory Banks Accessed per Memory Operation per Warp (from 0):
0	0	0	0	0	0	0	0	0	0	0	0	0	0	0	0	0	0	0	0	0	0	0	0	0	0	0	0	0	0	0	0	0	0	0	0	0	0	0	0	0	0	0	0	0	0	0	0	0	0	0	0	0	0	0	0	0	0	0	0	0	0	0	0	0	0	0	0	0	0	0	0	0	0	0	0	0	0	0	0	0	0	0	0	0	0	0	0	0	0	0	0	0	0	0	0	0	0	0	0	0	0	0	0	0	0	0	0	0	0	0	0	0	0	0	0	0	0	0	0	0	0	0	0	0	0	0	0	0	0	0	0	0	0	0	0	0	0	0	0	0	0	0	0	0	0	0	0	0	0	0	0	0	0	0	0	0	0	0	0	0	0	0	0	0	0	0	0	0	0	0	0	0	0	0	0	0	0	0	0	0	0	0	0	0	0	0	0	0	0	0	0	
Average # of Memory Banks Accessed per Memory Operation per Warp=-nan

position of mrq chosen
0	0	0	0	0	0	0	0	0	0	0	0	0	0	0	0	0	0	0	0	0	0	0	0	0	0	0	0	0	0	0	0	0	0	0	0	0	0	0	0	0	0	0	0	0	0	0	0	0	0	0	0	0	0	0	0	0	0	0	0	0	0	0	0	

average position of mrq chosen = -nan
Memory Partition 0: 
Cache L2_bank_000:
MSHR contents

Cache L2_bank_001:
MSHR contents

In Dram Latency Queue (total = 0): 
DRAM[0]: 16 bks, busW=2 BL=16 CL=24, tRRD=12 tCCD=4, tRCD=24 tRAS=55 tRP=24 tRC=78
n_cmd=1595810 n_nop=1210209 n_act=8109 n_pre=8093 n_ref_event=0 n_req=279396 n_rd=248976 n_rd_L2_A=0 n_write=0 n_wr_bk=121680 bw_util=0.9291
n_activity=1569484 dram_eff=0.9447
bk0: 15552a 1027405i bk1: 15552a 1016571i bk2: 15552a 1023538i bk3: 15552a 1015444i bk4: 15552a 1046692i bk5: 15552a 1037110i bk6: 15576a 1017307i bk7: 15576a 1009818i bk8: 15600a 1020221i bk9: 15600a 1015744i bk10: 15552a 993062i bk11: 15552a 983540i bk12: 15552a 1043849i bk13: 15552a 1035152i bk14: 15552a 1016719i bk15: 15552a 998589i 

------------------------------------------------------------------------

Row_Buffer_Locality = 0.970977
Row_Buffer_Locality_read = 0.979858
Row_Buffer_Locality_write = 0.898291
Bank_Level_Parallism = 6.090428
Bank_Level_Parallism_Col = 5.919480
Bank_Level_Parallism_Ready = 2.359111
write_to_read_ratio_blp_rw_average = 0.441983
GrpLevelPara = 3.529957 

BW Util details:
bwutil = 0.929073 
total_CMD = 1595810 
util_bw = 1482624 
Wasted_Col = 77960 
Wasted_Row = 1972 
Idle = 33254 

BW Util Bottlenecks: 
RCDc_limit = 10164 
RCDWRc_limit = 3484 
WTRc_limit = 104214 
RTWc_limit = 163099 
CCDLc_limit = 61726 
rwq = 0 
CCDLc_limit_alone = 38109 
WTRc_limit_alone = 95709 
RTWc_limit_alone = 147987 

Commands details: 
total_CMD = 1595810 
n_nop = 1210209 
Read = 248976 
Write = 0 
L2_Alloc = 0 
L2_WB = 121680 
n_act = 8109 
n_pre = 8093 
n_ref = 0 
n_req = 279396 
total_req = 370656 

Dual Bus Interface Util: 
issued_total_row = 16202 
issued_total_col = 370656 
Row_Bus_Util =  0.010153 
CoL_Bus_Util = 0.232268 
Either_Row_CoL_Bus_Util = 0.241633 
Issued_on_Two_Bus_Simul_Util = 0.000788 
issued_two_Eff = 0.003260 
queue_avg = 47.803844 


dram_util_bins: 0 0 0 0 0 0 0 0 0 0
dram_eff_bins: 0 0 0 0 0 0 0 0 0 0
mrqq: max=64 avg=47.8038
Memory Partition 1: 
Cache L2_bank_002:
MSHR contents

Cache L2_bank_003:
MSHR contents

In Dram Latency Queue (total = 0): 
DRAM[1]: 16 bks, busW=2 BL=16 CL=24, tRRD=12 tCCD=4, tRCD=24 tRAS=55 tRP=24 tRC=78
n_cmd=1595810 n_nop=1210009 n_act=8209 n_pre=8193 n_ref_event=0 n_req=279394 n_rd=248976 n_rd_L2_A=0 n_write=0 n_wr_bk=121672 bw_util=0.9291
n_activity=1570418 dram_eff=0.9441
bk0: 15552a 1033693i bk1: 15552a 1021740i bk2: 15552a 1011460i bk3: 15552a 996822i bk4: 15552a 1030047i bk5: 15552a 1025847i bk6: 15576a 1007438i bk7: 15576a 1008342i bk8: 15600a 1013910i bk9: 15600a 992021i bk10: 15552a 1003993i bk11: 15552a 1004366i bk12: 15552a 1032431i bk13: 15552a 1025187i bk14: 15552a 1025398i bk15: 15552a 1014351i 

------------------------------------------------------------------------

Row_Buffer_Locality = 0.970619
Row_Buffer_Locality_read = 0.979669
Row_Buffer_Locality_write = 0.896542
Bank_Level_Parallism = 6.115647
Bank_Level_Parallism_Col = 1.000000
Bank_Level_Parallism_Ready = 2.350674
write_to_read_ratio_blp_rw_average = 0.000000
GrpLevelPara = 0.000000 

BW Util details:
bwutil = 0.929053 
total_CMD = 1595810 
util_bw = 1482592 
Wasted_Col = 79334 
Wasted_Row = 2255 
Idle = 31629 

BW Util Bottlenecks: 
RCDc_limit = 10394 
RCDWRc_limit = 3585 
WTRc_limit = 108254 
RTWc_limit = 169428 
CCDLc_limit = 67081 
rwq = 0 
CCDLc_limit_alone = 41051 
WTRc_limit_alone = 99430 
RTWc_limit_alone = 152222 

Commands details: 
total_CMD = 1595810 
n_nop = 1210009 
Read = 248976 
Write = 0 
L2_Alloc = 0 
L2_WB = 121672 
n_act = 8209 
n_pre = 8193 
n_ref = 0 
n_req = 279394 
total_req = 370648 

Dual Bus Interface Util: 
issued_total_row = 16402 
issued_total_col = 370648 
Row_Bus_Util =  0.010278 
CoL_Bus_Util = 0.232263 
Either_Row_CoL_Bus_Util = 0.241759 
Issued_on_Two_Bus_Simul_Util = 0.000783 
issued_two_Eff = 0.003237 
queue_avg = 48.371780 


dram_util_bins: 0 0 0 0 0 0 0 0 0 0
dram_eff_bins: 0 0 0 0 0 0 0 0 0 0
mrqq: max=64 avg=48.3718
Memory Partition 2: 
Cache L2_bank_004:
MSHR contents

Cache L2_bank_005:
MSHR contents

In Dram Latency Queue (total = 0): 
DRAM[2]: 16 bks, busW=2 BL=16 CL=24, tRRD=12 tCCD=4, tRCD=24 tRAS=55 tRP=24 tRC=78
n_cmd=1595810 n_nop=1210223 n_act=8096 n_pre=8080 n_ref_event=0 n_req=279391 n_rd=248973 n_rd_L2_A=0 n_write=0 n_wr_bk=121672 bw_util=0.929
n_activity=1570268 dram_eff=0.9442
bk0: 15552a 1026972i bk1: 15552a 1011161i bk2: 15552a 1012944i bk3: 15552a 1013331i bk4: 15552a 1046058i bk5: 15552a 1034303i bk6: 15576a 1020089i bk7: 15576a 1022687i bk8: 15600a 1024261i bk9: 15597a 1003552i bk10: 15552a 1004297i bk11: 15552a 1000470i bk12: 15552a 1045206i bk13: 15552a 1036563i bk14: 15552a 1030302i bk15: 15552a 1010624i 

------------------------------------------------------------------------

Row_Buffer_Locality = 0.971023
Row_Buffer_Locality_read = 0.979801
Row_Buffer_Locality_write = 0.899172
Bank_Level_Parallism = 6.055426
Bank_Level_Parallism_Col = 5.887678
Bank_Level_Parallism_Ready = 2.342032
write_to_read_ratio_blp_rw_average = 0.447719
GrpLevelPara = 3.536077 

BW Util details:
bwutil = 0.929045 
total_CMD = 1595810 
util_bw = 1482580 
Wasted_Col = 79401 
Wasted_Row = 2104 
Idle = 31725 

BW Util Bottlenecks: 
RCDc_limit = 10436 
RCDWRc_limit = 3479 
WTRc_limit = 102334 
RTWc_limit = 171117 
CCDLc_limit = 64512 
rwq = 0 
CCDLc_limit_alone = 39798 
WTRc_limit_alone = 94504 
RTWc_limit_alone = 154233 

Commands details: 
total_CMD = 1595810 
n_nop = 1210223 
Read = 248973 
Write = 0 
L2_Alloc = 0 
L2_WB = 121672 
n_act = 8096 
n_pre = 8080 
n_ref = 0 
n_req = 279391 
total_req = 370645 

Dual Bus Interface Util: 
issued_total_row = 16176 
issued_total_col = 370645 
Row_Bus_Util =  0.010137 
CoL_Bus_Util = 0.232261 
Either_Row_CoL_Bus_Util = 0.241625 
Issued_on_Two_Bus_Simul_Util = 0.000773 
issued_two_Eff = 0.003200 
queue_avg = 47.882191 


dram_util_bins: 0 0 0 0 0 0 0 0 0 0
dram_eff_bins: 0 0 0 0 0 0 0 0 0 0
mrqq: max=64 avg=47.8822
Memory Partition 3: 
Cache L2_bank_006:
MSHR contents

Cache L2_bank_007:
MSHR contents

In Dram Latency Queue (total = 0): 
DRAM[3]: 16 bks, busW=2 BL=16 CL=24, tRRD=12 tCCD=4, tRCD=24 tRAS=55 tRP=24 tRC=78
n_cmd=1595810 n_nop=1210202 n_act=8115 n_pre=8099 n_ref_event=0 n_req=279388 n_rd=248965 n_rd_L2_A=0 n_write=0 n_wr_bk=121692 bw_util=0.9291
n_activity=1568724 dram_eff=0.9451
bk0: 15552a 1025538i bk1: 15549a 1014920i bk2: 15552a 1012433i bk3: 15552a 994697i bk4: 15552a 1040597i bk5: 15552a 1029385i bk6: 15576a 1015790i bk7: 15576a 1010482i bk8: 15596a 1021750i bk9: 15596a 1008409i bk10: 15552a 1012152i bk11: 15552a 1000365i bk12: 15552a 1044539i bk13: 15552a 1039129i bk14: 15552a 1016401i bk15: 15552a 1008918i 

------------------------------------------------------------------------

Row_Buffer_Locality = 0.970954
Row_Buffer_Locality_read = 0.979796
Row_Buffer_Locality_write = 0.898596
Bank_Level_Parallism = 6.096865
Bank_Level_Parallism_Col = 5.925584
Bank_Level_Parallism_Ready = 2.345306
write_to_read_ratio_blp_rw_average = 0.444586
GrpLevelPara = 3.532585 

BW Util details:
bwutil = 0.929076 
total_CMD = 1595810 
util_bw = 1482628 
Wasted_Col = 77182 
Wasted_Row = 1999 
Idle = 34001 

BW Util Bottlenecks: 
RCDc_limit = 9898 
RCDWRc_limit = 3430 
WTRc_limit = 103592 
RTWc_limit = 164547 
CCDLc_limit = 60872 
rwq = 0 
CCDLc_limit_alone = 37999 
WTRc_limit_alone = 95617 
RTWc_limit_alone = 149649 

Commands details: 
total_CMD = 1595810 
n_nop = 1210202 
Read = 248965 
Write = 0 
L2_Alloc = 0 
L2_WB = 121692 
n_act = 8115 
n_pre = 8099 
n_ref = 0 
n_req = 279388 
total_req = 370657 

Dual Bus Interface Util: 
issued_total_row = 16214 
issued_total_col = 370657 
Row_Bus_Util =  0.010160 
CoL_Bus_Util = 0.232269 
Either_Row_CoL_Bus_Util = 0.241638 
Issued_on_Two_Bus_Simul_Util = 0.000791 
issued_two_Eff = 0.003275 
queue_avg = 47.788109 


dram_util_bins: 0 0 0 0 0 0 0 0 0 0
dram_eff_bins: 0 0 0 0 0 0 0 0 0 0
mrqq: max=64 avg=47.7881
Memory Partition 4: 
Cache L2_bank_008:
MSHR contents

Cache L2_bank_009:
MSHR contents

In Dram Latency Queue (total = 0): 
DRAM[4]: 16 bks, busW=2 BL=16 CL=24, tRRD=12 tCCD=4, tRCD=24 tRAS=55 tRP=24 tRC=78
n_cmd=1595810 n_nop=1210101 n_act=8176 n_pre=8160 n_ref_event=0 n_req=279390 n_rd=248968 n_rd_L2_A=0 n_write=0 n_wr_bk=121688 bw_util=0.9291
n_activity=1568817 dram_eff=0.9451
bk0: 15552a 1024784i bk1: 15552a 1015154i bk2: 15552a 1021768i bk3: 15552a 1018701i bk4: 15552a 1028710i bk5: 15552a 1025530i bk6: 15576a 1028788i bk7: 15576a 1012317i bk8: 15596a 1014589i bk9: 15596a 1008855i bk10: 15552a 1006189i bk11: 15552a 1006213i bk12: 15552a 1041501i bk13: 15552a 1036521i bk14: 15552a 1027042i bk15: 15552a 1019231i 

------------------------------------------------------------------------

Row_Buffer_Locality = 0.970736
Row_Buffer_Locality_read = 0.979704
Row_Buffer_Locality_write = 0.897344
Bank_Level_Parallism = 6.073330
Bank_Level_Parallism_Col = 5.900106
Bank_Level_Parallism_Ready = 2.348242
write_to_read_ratio_blp_rw_average = 0.443640
GrpLevelPara = 3.527328 

BW Util details:
[...]

------------------------------------------------------------------------

Row_Buffer_Locality = 0.893785
Row_Buffer_Locality_read = 0.906400
Row_Buffer_Locality_write = 0.729384
Bank_Level_Parallism = 6.761941
Bank_Level_Parallism_Col = 6.024781
Bank_Level_Parallism_Ready = 2.393744
write_to_read_ratio_blp_rw_average = 0.406250
GrpLevelPara = 3.463089 

BW Util details:
bwutil = 0.881866 
total_CMD = 4773859 
util_bw = 4209904 
Wasted_Col = 478655 
Wasted_Row = 17721 
Idle = 67579 

BW Util Bottlenecks: 
RCDc_limit = 300536 
RCDWRc_limit = 34051 
WTRc_limit = 657378 
RTWc_limit = 930748 
CCDLc_limit = 357552 
rwq = 0 
CCDLc_limit_alone = 223497 
WTRc_limit_alone = 608182 
RTWc_limit_alone = 845889 

Commands details: 
total_CMD = 4773859 
n_nop = 3552916 
Read = 805292 
Write = 0 
L2_Alloc = 0 
L2_WB = 247184 
n_act = 92098 
n_pre = 92082 
n_ref = 0 
n_req = 867088 
total_req = 1052476 

Dual Bus Interface Util: 
issued_total_row = 184180 
issued_total_col = 1052476 
Row_Bus_Util =  0.038581 
CoL_Bus_Util = 0.220467 
Either_Row_CoL_Bus_Util = 0.255756 
Issued_on_Two_Bus_Simul_Util = 0.003291 
issued_two_Eff = 0.012870 
queue_avg = 41.484993 


dram_util_bins: 0 0 0 0 0 0 0 0 0 0
dram_eff_bins: 0 0 0 0 0 0 0 0 0 0
mrqq: max=64 avg=41.485
Memory Partition 9: 
Cache L2_bank_018:
MSHR contents

Cache L2_bank_019:
MSHR contents

In Dram Latency Queue (total = 0): 
DRAM[9]: 16 bks, busW=2 BL=16 CL=24, tRRD=12 tCCD=4, tRCD=24 tRAS=55 tRP=24 tRC=78
n_cmd=4773859 n_nop=3554234 n_act=91637 n_pre=91621 n_ref_event=0 n_req=866658 n_rd=804863 n_rd_L2_A=0 n_write=0 n_wr_bk=247180 bw_util=0.8815
n_activity=4724625 dram_eff=0.8907
bk0: 50150a 2870729i bk1: 50288a 2821661i bk2: 50434a 2863609i bk3: 50350a 2832023i bk4: 50549a 2852576i bk5: 50360a 2840616i bk6: 50384a 2874667i bk7: 50224a 2861797i bk8: 50369a 2867384i bk9: 50481a 2826413i bk10: 50261a 2844635i bk11: 50268a 2808675i bk12: 50226a 2861823i bk13: 50333a 2845141i bk14: 50123a 2876329i bk15: 50063a 2843483i 

------------------------------------------------------------------------

Row_Buffer_Locality = 0.894264
Row_Buffer_Locality_read = 0.906876
Row_Buffer_Locality_write = 0.729994
Bank_Level_Parallism = 6.724061
Bank_Level_Parallism_Col = 5.991096
Bank_Level_Parallism_Ready = 2.381769
write_to_read_ratio_blp_rw_average = 0.404384
GrpLevelPara = 3.463233 

BW Util details:
bwutil = 0.881503 
total_CMD = 4773859 
util_bw = 4208172 
Wasted_Col = 480417 
Wasted_Row = 18179 
Idle = 67091 

BW Util Bottlenecks: 
RCDc_limit = 302477 
RCDWRc_limit = 34733 
WTRc_limit = 669021 
RTWc_limit = 920243 
CCDLc_limit = 364741 
rwq = 0 
CCDLc_limit_alone = 226827 
WTRc_limit_alone = 617912 
RTWc_limit_alone = 833438 

Commands details: 
total_CMD = 4773859 
n_nop = 3554234 
Read = 804863 
Write = 0 
L2_Alloc = 0 
L2_WB = 247180 
n_act = 91637 
n_pre = 91621 
n_ref = 0 
n_req = 866658 
total_req = 1052043 

Dual Bus Interface Util: 
issued_total_row = 183258 
issued_total_col = 1052043 
Row_Bus_Util =  0.038388 
CoL_Bus_Util = 0.220376 
Either_Row_CoL_Bus_Util = 0.255480 
Issued_on_Two_Bus_Simul_Util = 0.003284 
issued_two_Eff = 0.012853 
queue_avg = 41.156395 


dram_util_bins: 0 0 0 0 0 0 0 0 0 0
dram_eff_bins: 0 0 0 0 0 0 0 0 0 0
mrqq: max=64 avg=41.1564
Memory Partition 10: 
Cache L2_bank_020:
MSHR contents

Cache L2_bank_021:
MSHR contents

In Dram Latency Queue (total = 0): 
DRAM[10]: 16 bks, busW=2 BL=16 CL=24, tRRD=12 tCCD=4, tRCD=24 tRAS=55 tRP=24 tRC=78
n_cmd=4773859 n_nop=3553255 n_act=91859 n_pre=91843 n_ref_event=0 n_req=867104 n_rd=805308 n_rd_L2_A=0 n_write=0 n_wr_bk=247184 bw_util=0.8819
n_activity=4725862 dram_eff=0.8908
bk0: 50304a 2864664i bk1: 50381a 2851018i bk2: 50498a 2858591i bk3: 50301a 2858987i bk4: 50407a 2883798i bk5: 50413a 2826464i bk6: 50288a 2877930i bk7: 50495a 2832877i bk8: 50289a 2876811i bk9: 50357a 2846075i bk10: 50170a 2844841i bk11: 50269a 2792523i bk12: 50221a 2844927i bk13: 50385a 2838004i bk14: 50272a 2861230i bk15: 50258a 2830498i 

------------------------------------------------------------------------

Row_Buffer_Locality = 0.894062
Row_Buffer_Locality_read = 0.906703
Row_Buffer_Locality_write = 0.729335
Bank_Level_Parallism = 6.721250
Bank_Level_Parallism_Col = 5.987386
Bank_Level_Parallism_Ready = 2.392711
write_to_read_ratio_blp_rw_average = 0.402369
GrpLevelPara = 3.457248 

BW Util details:
bwutil = 0.881879 
total_CMD = 4773859 
util_bw = 4209968 
Wasted_Col = 481637 
Wasted_Row = 17582 
Idle = 64672 

BW Util Bottlenecks: 
RCDc_limit = 303495 
RCDWRc_limit = 34330 
WTRc_limit = 662999 
RTWc_limit = 923695 
CCDLc_limit = 362455 
rwq = 0 
CCDLc_limit_alone = 225766 
WTRc_limit_alone = 613217 
RTWc_limit_alone = 836788 

Commands details: 
total_CMD = 4773859 
n_nop = 3553255 
Read = 805308 
Write = 0 
L2_Alloc = 0 
L2_WB = 247184 
n_act = 91859 
n_pre = 91843 
n_ref = 0 
n_req = 867104 
total_req = 1052492 

Dual Bus Interface Util: 
issued_total_row = 183702 
issued_total_col = 1052492 
Row_Bus_Util =  0.038481 
CoL_Bus_Util = 0.220470 
Either_Row_CoL_Bus_Util = 0.255685 
Issued_on_Two_Bus_Simul_Util = 0.003266 
issued_two_Eff = 0.012772 
queue_avg = 41.285496 


dram_util_bins: 0 0 0 0 0 0 0 0 0 0
dram_eff_bins: 0 0 0 0 0 0 0 0 0 0
mrqq: max=64 avg=41.2855
Memory Partition 11: 
Cache L2_bank_022:
MSHR contents

Cache L2_bank_023:
MSHR contents

In Dram Latency Queue (total = 0): 
DRAM[11]: 16 bks, busW=2 BL=16 CL=24, tRRD=12 tCCD=4, tRCD=24 tRAS=55 tRP=24 tRC=78
n_cmd=4773859 n_nop=3554284 n_act=91432 n_pre=91416 n_ref_event=0 n_req=866762 n_rd=804966 n_rd_L2_A=0 n_write=0 n_wr_bk=247184 bw_util=0.8816
n_activity=4721449 dram_eff=0.8914
bk0: 50325a 2864206i bk1: 50274a 2852447i bk2: 50435a 2860853i bk3: 50457a 2827162i bk4: 50647a 2850946i bk5: 50452a 2839678i bk6: 50469a 2852534i bk7: 50334a 2818482i bk8: 50403a 2870544i bk9: 50456a 2819965i bk10: 50099a 2834370i bk11: 49990a 2828303i bk12: 50196a 2867380i bk13: 50273a 2833803i bk14: 50132a 2824077i bk15: 50024a 2803420i 

------------------------------------------------------------------------

Row_Buffer_Locality = 0.894513
Row_Buffer_Locality_read = 0.907206
Row_Buffer_Locality_write = 0.729173
Bank_Level_Parallism = 6.760648
Bank_Level_Parallism_Col = 6.031127
Bank_Level_Parallism_Ready = 2.402417
write_to_read_ratio_blp_rw_average = 0.407305
GrpLevelPara = 3.470103 

BW Util details:
bwutil = 0.881593 
total_CMD = 4773859 
util_bw = 4208600 
Wasted_Col = 476576 
Wasted_Row = 17986 
Idle = 70697 

BW Util Bottlenecks: 
RCDc_limit = 300508 
RCDWRc_limit = 33988 
WTRc_limit = 656516 
RTWc_limit = 920931 
CCDLc_limit = 358296 
rwq = 0 
CCDLc_limit_alone = 223137 
WTRc_limit_alone = 608057 
RTWc_limit_alone = 834231 

Commands details: 
total_CMD = 4773859 
n_nop = 3554284 
Read = 804966 
Write = 0 
L2_Alloc = 0 
L2_WB = 247184 
n_act = 91432 
n_pre = 91416 
n_ref = 0 
n_req = 866762 
total_req = 1052150 

Dual Bus Interface Util: 
issued_total_row = 182848 
issued_total_col = 1052150 
Row_Bus_Util =  0.038302 
CoL_Bus_Util = 0.220398 
Either_Row_CoL_Bus_Util = 0.255469 
Issued_on_Two_Bus_Simul_Util = 0.003231 
issued_two_Eff = 0.012646 
queue_avg = 41.252651 


dram_util_bins: 0 0 0 0 0 0 0 0 0 0
dram_eff_bins: 0 0 0 0 0 0 0 0 0 0
mrqq: max=64 avg=41.2527

========= L2 cache stats =========
L2_cache_bank[0]: Access = 556557, Miss = 526635, Miss_rate = 0.946, Pending_hits = 18399, Reservation_fails = 209
L2_cache_bank[1]: Access = 541237, Miss = 527011, Miss_rate = 0.974, Pending_hits = 3551, Reservation_fails = 608
L2_cache_bank[2]: Access = 540840, Miss = 527098, Miss_rate = 0.975, Pending_hits = 3383, Reservation_fails = 173
L2_cache_bank[3]: Access = 540985, Miss = 527258, Miss_rate = 0.975, Pending_hits = 3426, Reservation_fails = 531
L2_cache_bank[4]: Access = 560409, Miss = 527149, Miss_rate = 0.941, Pending_hits = 15592, Reservation_fails = 724
L2_cache_bank[5]: Access = 544679, Miss = 526899, Miss_rate = 0.967, Pending_hits = 4665, Reservation_fails = 292
L2_cache_bank[6]: Access = 543134, Miss = 526925, Miss_rate = 0.970, Pending_hits = 3975, Reservation_fails = 0
L2_cache_bank[7]: Access = 542035, Miss = 526837, Miss_rate = 0.972, Pending_hits = 3847, Reservation_fails = 91
L2_cache_bank[8]: Access = 556739, Miss = 527094, Miss_rate = 0.947, Pending_hits = 18305, Reservation_fails = 478
L2_cache_bank[9]: Access = 541045, Miss = 526811, Miss_rate = 0.974, Pending_hits = 3632, Reservation_fails = 121
L2_cache_bank[10]: Access = 540455, Miss = 526757, Miss_rate = 0.975, Pending_hits = 3372, Reservation_fails = 251
L2_cache_bank[11]: Access = 540502, Miss = 527003, Miss_rate = 0.975, Pending_hits = 3492, Reservation_fails = 258
L2_cache_bank[12]: Access = 559921, Miss = 526811, Miss_rate = 0.941, Pending_hits = 15668, Reservation_fails = 41
L2_cache_bank[13]: Access = 544610, Miss = 527070, Miss_rate = 0.968, Pending_hits = 4539, Reservation_fails = 64
L2_cache_bank[14]: Access = 542560, Miss = 526655, Miss_rate = 0.971, Pending_hits = 3962, Reservation_fails = 436
L2_cache_bank[15]: Access = 542370, Miss = 527039, Miss_rate = 0.972, Pending_hits = 3772, Reservation_fails = 298
L2_cache_bank[16]: Access = 557041, Miss = 527327, Miss_rate = 0.947, Pending_hits = 18225, Reservation_fails = 121
L2_cache_bank[17]: Access = 541340, Miss = 526941, Miss_rate = 0.973, Pending_hits = 3534, Reservation_fails = 149
L2_cache_bank[18]: Access = 541173, Miss = 526984, Miss_rate = 0.974, Pending_hits = 3409, Reservation_fails = 686
L2_cache_bank[19]: Access = 540533, Miss = 526855, Miss_rate = 0.975, Pending_hits = 3379, Reservation_fails = 27
L2_cache_bank[20]: Access = 560303, Miss = 526937, Miss_rate = 0.940, Pending_hits = 15652, Reservation_fails = 1214
L2_cache_bank[21]: Access = 545199, Miss = 527347, Miss_rate = 0.967, Pending_hits = 4544, Reservation_fails = 314
L2_cache_bank[22]: Access = 543728, Miss = 527194, Miss_rate = 0.970, Pending_hits = 4153, Reservation_fails = 212
L2_cache_bank[23]: Access = 541966, Miss = 526748, Miss_rate = 0.972, Pending_hits = 3914, Reservation_fails = 449
L2_total_cache_accesses = 13109361
L2_total_cache_misses = 12647385
L2_total_cache_miss_rate = 0.9648
L2_total_cache_pending_hits = 170390
L2_total_cache_reservation_fails = 7747
L2_total_cache_breakdown:
	L2_cache_stats_breakdown[GLOBAL_ACC_R][HIT] = 291586
	L2_cache_stats_breakdown[GLOBAL_ACC_R][HIT_RESERVED] = 170390
	L2_cache_stats_breakdown[GLOBAL_ACC_R][MISS] = 2704730
	L2_cache_stats_breakdown[GLOBAL_ACC_R][RESERVATION_FAIL] = 7747
	L2_cache_stats_breakdown[GLOBAL_ACC_R][SECTOR_MISS] = 6954965
	L2_cache_stats_breakdown[GLOBAL_ACC_R][MSHR_HIT] = 170390
	L2_cache_stats_breakdown[LOCAL_ACC_R][HIT] = 0
	L2_cache_stats_breakdown[LOCAL_ACC_R][HIT_RESERVED] = 0
	L2_cache_stats_breakdown[LOCAL_ACC_R][MISS] = 0
	L2_cache_stats_breakdown[LOCAL_ACC_R][RESERVATION_FAIL] = 0
	L2_cache_stats_breakdown[LOCAL_ACC_R][SECTOR_MISS] = 0
	L2_cache_stats_breakdown[LOCAL_ACC_R][MSHR_HIT] = 0
	L2_cache_stats_breakdown[CONST_ACC_R][HIT] = 0
	L2_cache_stats_breakdown[CONST_ACC_R][HIT_RESERVED] = 0
	L2_cache_stats_breakdown[CONST_ACC_R][MISS] = 0
	L2_cache_stats_breakdown[CONST_ACC_R][RESERVATION_FAIL] = 0
	L2_cache_stats_breakdown[CONST_ACC_R][SECTOR_MISS] = 0
	L2_cache_stats_breakdown[CONST_ACC_R][MSHR_HIT] = 0
	L2_cache_stats_breakdown[TEXTURE_ACC_R][HIT] = 0
	L2_cache_stats_breakdown[TEXTURE_ACC_R][HIT_RESERVED] = 0
	L2_cache_stats_breakdown[TEXTURE_ACC_R][MISS] = 0
	L2_cache_stats_breakdown[TEXTURE_ACC_R][RESERVATION_FAIL] = 0
	L2_cache_stats_breakdown[TEXTURE_ACC_R][SECTOR_MISS] = 0
	L2_cache_stats_breakdown[TEXTURE_ACC_R][MSHR_HIT] = 0
	L2_cache_stats_breakdown[GLOBAL_ACC_W][HIT] = 0
	L2_cache_stats_breakdown[GLOBAL_ACC_W][HIT_RESERVED] = 0
	L2_cache_stats_breakdown[GLOBAL_ACC_W][MISS] = 746924
	L2_cache_stats_breakdown[GLOBAL_ACC_W][RESERVATION_FAIL] = 0
	L2_cache_stats_breakdown[GLOBAL_ACC_W][SECTOR_MISS] = 2240766
	L2_cache_stats_breakdown[GLOBAL_ACC_W][MSHR_HIT] = 0
	L2_cache_stats_breakdown[LOCAL_ACC_W][HIT] = 0
	L2_cache_stats_breakdown[LOCAL_ACC_W][HIT_RESERVED] = 0
	L2_cache_stats_breakdown[LOCAL_ACC_W][MISS] = 0
	L2_cache_stats_breakdown[LOCAL_ACC_W][RESERVATION_FAIL] = 0
	L2_cache_stats_breakdown[LOCAL_ACC_W][SECTOR_MISS] = 0
	L2_cache_stats_breakdown[LOCAL_ACC_W][MSHR_HIT] = 0
	L2_cache_stats_breakdown[L1_WRBK_ACC][HIT] = 0
	L2_cache_stats_breakdown[L1_WRBK_ACC][HIT_RESERVED] = 0
	L2_cache_stats_breakdown[L1_WRBK_ACC][MISS] = 0
	L2_cache_stats_breakdown[L1_WRBK_ACC][RESERVATION_FAIL] = 0
	L2_cache_stats_breakdown[L1_WRBK_ACC][SECTOR_MISS] = 0
	L2_cache_stats_breakdown[L1_WRBK_ACC][MSHR_HIT] = 0
	L2_cache_stats_breakdown[L2_WRBK_ACC][HIT] = 0
	L2_cache_stats_breakdown[L2_WRBK_ACC][HIT_RESERVED] = 0
	L2_cache_stats_breakdown[L2_WRBK_ACC][MISS] = 0
	L2_cache_stats_breakdown[L2_WRBK_ACC][RESERVATION_FAIL] = 0
	L2_cache_stats_breakdown[L2_WRBK_ACC][SECTOR_MISS] = 0
	L2_cache_stats_breakdown[L2_WRBK_ACC][MSHR_HIT] = 0
	L2_cache_stats_breakdown[INST_ACC_R][HIT] = 0
	L2_cache_stats_breakdown[INST_ACC_R][HIT_RESERVED] = 0
	L2_cache_stats_breakdown[INST_ACC_R][MISS] = 0
	L2_cache_stats_breakdown[INST_ACC_R][RESERVATION_FAIL] = 0
	L2_cache_stats_breakdown[INST_ACC_R][SECTOR_MISS] = 0
	L2_cache_stats_breakdown[INST_ACC_R][MSHR_HIT] = 0
	L2_cache_stats_breakdown[L1_WR_ALLOC_R][HIT] = 0
	L2_cache_stats_breakdown[L1_WR_ALLOC_R][HIT_RESERVED] = 0
	L2_cache_stats_breakdown[L1_WR_ALLOC_R][MISS] = 0
	L2_cache_stats_breakdown[L1_WR_ALLOC_R][RESERVATION_FAIL] = 0
	L2_cache_stats_breakdown[L1_WR_ALLOC_R][SECTOR_MISS] = 0
	L2_cache_stats_breakdown[L1_WR_ALLOC_R][MSHR_HIT] = 0
	L2_cache_stats_breakdown[L2_WR_ALLOC_R][HIT] = 0
	L2_cache_stats_breakdown[L2_WR_ALLOC_R][HIT_RESERVED] = 0
	L2_cache_stats_breakdown[L2_WR_ALLOC_R][MISS] = 0
	L2_cache_stats_breakdown[L2_WR_ALLOC_R][RESERVATION_FAIL] = 0
	L2_cache_stats_breakdown[L2_WR_ALLOC_R][SECTOR_MISS] = 0
	L2_cache_stats_breakdown[L2_WR_ALLOC_R][MSHR_HIT] = 0
	L2_cache_stats_breakdown[GLOBAL_ACC_R][TOTAL_ACCESS] = 10121671
	L2_cache_stats_breakdown[GLOBAL_ACC_W][TOTAL_ACCESS] = 2987690
L2_total_cache_reservation_fail_breakdown:
	L2_cache_stats_fail_breakdown[GLOBAL_ACC_R][MSHR_MERGE_ENRTY_FAIL] = 7747
L2_cache_data_port_util = 0.021
L2_cache_fill_port_util = 0.216

icnt_total_pkts_mem_to_simt=13109361
icnt_total_pkts_simt_to_mem=13109361
LD_mem_lat_dist  0 0 0 0 0 0 0 0 0 0 0 0 0 0 0 0 0 0 0 0 0 0 0 0 0 0 0
ST_mem_lat_dist  0 0 0 0 0 0 0 0 0 0 0 0 0 0 0 0 0 0 0 0 0 0 0 0 0 0 0
----------------------------Interconnect-DETAILS--------------------------------
Req_Network_injected_packets_num = 13109361
Req_Network_cycles = 1861541
Req_Network_injected_packets_per_cycle =       7.0422 
Req_Network_conflicts_per_cycle =       1.8452
Req_Network_conflicts_per_cycle_util =       1.8591
Req_Bank_Level_Parallism =       7.0951
Req_Network_in_buffer_full_per_cycle =       0.0000
Req_Network_in_buffer_avg_util =       0.6464
Req_Network_out_buffer_full_per_cycle =       0.0000
Req_Network_out_buffer_avg_util =       0.2942

Reply_Network_injected_packets_num = 13109361
Reply_Network_cycles = 1861541
Reply_Network_injected_packets_per_cycle =        7.0422
Reply_Network_conflicts_per_cycle =        3.3133
Reply_Network_conflicts_per_cycle_util =       3.3366
Reply_Bank_Level_Parallism =       7.0917
Reply_Network_in_buffer_full_per_cycle =       0.0000
Reply_Network_in_buffer_avg_util =       0.5778
Reply_Network_out_buffer_full_per_cycle =       0.0000
Reply_Network_out_buffer_avg_util =       0.2347
----------------------------END-of-Interconnect-DETAILS-------------------------


gpgpu_simulation_time = 0 days, 5 hrs, 10 min, 50 sec (18650 sec)
gpgpu_simulation_rate = 41560 (inst/sec)
gpgpu_simulation_rate = 99 (cycle/sec)
gpgpu_silicon_slowdown = 13787878x
GPGPU-Sim PTX: Setting up arguments for 4 bytes starting at 0x7fffe684bf7c..
GPGPU-Sim PTX: Setting up arguments for 8 bytes starting at 0x7fffe684bf70..
GPGPU-Sim PTX: Setting up arguments for 8 bytes starting at 0x7fffe684bf68..
GPGPU-Sim PTX: Setting up arguments for 8 bytes starting at 0x7fffe684bf60..
GPGPU-Sim PTX: Setting up arguments for 4 bytes starting at 0x7fffe684bf78..

GPGPU-Sim PTX: cudaLaunch for 0x0x55e4cdc8e858 (mode=performance simulation) on stream 0
GPGPU-Sim PTX: finding reconvergence points for '_Z6l1normiPfS_S_f'...
GPGPU-Sim PTX: Finding dominators for '_Z6l1normiPfS_S_f'...
GPGPU-Sim PTX: Finding immediate dominators for '_Z6l1normiPfS_S_f'...
GPGPU-Sim PTX: Finding postdominators for '_Z6l1normiPfS_S_f'...
GPGPU-Sim PTX: Finding immediate postdominators for '_Z6l1normiPfS_S_f'...
GPGPU-Sim PTX: pre-decoding instructions for '_Z6l1normiPfS_S_f'...
GPGPU-Sim PTX: reconvergence points for _Z6l1normiPfS_S_f...
GPGPU-Sim PTX:  1 (potential) branch divergence @  PC=0x370 (pr_base.1.sm_75.ptx:224) @%p1 bra $L__BB2_2;

GPGPU-Sim PTX:    immediate post dominator      @  PC=0x3e8 (pr_base.1.sm_75.ptx:243) mov.u32 %r7, %laneid;

GPGPU-Sim PTX:  2 (potential) branch divergence @  PC=0x4a8 (pr_base.1.sm_75.ptx:268) @%p2 bra $L__BB2_4;

GPGPU-Sim PTX:    immediate post dominator      @  PC=0x4f0 (pr_base.1.sm_75.ptx:280) bar.sync 0;

GPGPU-Sim PTX:  3 (potential) branch divergence @  PC=0x500 (pr_base.1.sm_75.ptx:282) @%p3 bra $L__BB2_6;

GPGPU-Sim PTX:    immediate post dominator      @  PC=0x578 (pr_base.1.sm_75.ptx:300) @%p3 bra $L__BB2_8;

GPGPU-Sim PTX:  4 (potential) branch divergence @  PC=0x578 (pr_base.1.sm_75.ptx:300) @%p3 bra $L__BB2_8;

GPGPU-Sim PTX:    immediate post dominator      @  PC=0x590 (pr_base.1.sm_75.ptx:306) ret;

GPGPU-Sim PTX: ... end of reconvergence points for _Z6l1normiPfS_S_f
GPGPU-Sim PTX: ... done pre-decoding instructions for '_Z6l1normiPfS_S_f'.
GPGPU-Sim PTX: pushing kernel '_Z6l1normiPfS_S_f' to stream 0, gridDim= (46683,1,1) blockDim = (256,1,1) 
GPGPU-Sim uArch: Shader 5 bind to kernel 3 '_Z6l1normiPfS_S_f'
GPGPU-Sim uArch: CTA/core = 4, limited by: threads
GPGPU-Sim: Reconfigure L1 cache to 64KB
GPGPU-Sim uArch: Shader 6 bind to kernel 3 '_Z6l1normiPfS_S_f'
GPGPU-Sim uArch: Shader 7 bind to kernel 3 '_Z6l1normiPfS_S_f'
GPGPU-Sim uArch: Shader 8 bind to kernel 3 '_Z6l1normiPfS_S_f'
GPGPU-Sim uArch: Shader 9 bind to kernel 3 '_Z6l1normiPfS_S_f'
GPGPU-Sim uArch: Shader 10 bind to kernel 3 '_Z6l1normiPfS_S_f'
GPGPU-Sim uArch: Shader 11 bind to kernel 3 '_Z6l1normiPfS_S_f'
GPGPU-Sim uArch: Shader 12 bind to kernel 3 '_Z6l1normiPfS_S_f'
GPGPU-Sim uArch: Shader 13 bind to kernel 3 '_Z6l1normiPfS_S_f'
GPGPU-Sim uArch: Shader 14 bind to kernel 3 '_Z6l1normiPfS_S_f'
GPGPU-Sim uArch: Shader 15 bind to kernel 3 '_Z6l1normiPfS_S_f'
GPGPU-Sim uArch: Shader 16 bind to kernel 3 '_Z6l1normiPfS_S_f'
GPGPU-Sim uArch: Shader 17 bind to kernel 3 '_Z6l1normiPfS_S_f'
GPGPU-Sim uArch: Shader 18 bind to kernel 3 '_Z6l1normiPfS_S_f'
GPGPU-Sim uArch: Shader 19 bind to kernel 3 '_Z6l1normiPfS_S_f'
GPGPU-Sim uArch: Shader 20 bind to kernel 3 '_Z6l1normiPfS_S_f'
GPGPU-Sim uArch: Shader 21 bind to kernel 3 '_Z6l1normiPfS_S_f'
GPGPU-Sim uArch: Shader 22 bind to kernel 3 '_Z6l1normiPfS_S_f'
GPGPU-Sim uArch: Shader 23 bind to kernel 3 '_Z6l1normiPfS_S_f'
GPGPU-Sim uArch: Shader 24 bind to kernel 3 '_Z6l1normiPfS_S_f'
GPGPU-Sim uArch: Shader 25 bind to kernel 3 '_Z6l1normiPfS_S_f'
GPGPU-Sim uArch: Shader 26 bind to kernel 3 '_Z6l1normiPfS_S_f'
GPGPU-Sim uArch: Shader 27 bind to kernel 3 '_Z6l1normiPfS_S_f'
GPGPU-Sim uArch: Shader 28 bind to kernel 3 '_Z6l1normiPfS_S_f'
GPGPU-Sim uArch: Shader 29 bind to kernel 3 '_Z6l1normiPfS_S_f'
GPGPU-Sim uArch: Shader 0 bind to kernel 3 '_Z6l1normiPfS_S_f'
GPGPU-Sim uArch: Shader 1 bind to kernel 3 '_Z6l1normiPfS_S_f'
GPGPU-Sim uArch: Shader 2 bind to kernel 3 '_Z6l1normiPfS_S_f'
GPGPU-Sim uArch: Shader 3 bind to kernel 3 '_Z6l1normiPfS_S_f'
GPGPU-Sim uArch: Shader 4 bind to kernel 3 '_Z6l1normiPfS_S_f'
