

        *** GPGPU-Sim Simulator Version 4.2.0  [build gpgpu-sim_git-commit-5e9d31b8132651796656877ecb58fde27177ba7a_modified_315.0] ***


GPGPU-Sim PTX: simulation mode 0 (can change with PTX_SIM_MODE_FUNC environment variable:
               1=functional simulation only, 0=detailed performance simulator)
GPGPU-Sim PTX: overriding embedded ptx with ptx file (PTX_SIM_USE_PTX_FILE is set)
GPGPU-Sim: Configuration options:

-save_embedded_ptx                      0 # saves ptx files embedded in binary as <n>.ptx
-keep                                   0 # keep intermediate files created by GPGPU-Sim when interfacing with external programs
-gpgpu_ptx_save_converted_ptxplus                    0 # Saved converted ptxplus to a file
-gpgpu_occupancy_sm_number                   75 # The SM number to pass to ptxas when getting register usage for computing GPU occupancy. This parameter is required in the config.
-ptx_opcode_latency_int           4,4,4,4,21 # Opcode latencies for integers <ADD,MAX,MUL,MAD,DIV,SHFL>Default 1,1,19,25,145,32
-ptx_opcode_latency_fp           4,4,4,4,39 # Opcode latencies for single precision floating points <ADD,MAX,MUL,MAD,DIV>Default 1,1,1,1,30
-ptx_opcode_latency_dp      64,64,64,64,330 # Opcode latencies for double precision floating points <ADD,MAX,MUL,MAD,DIV>Default 8,8,8,8,335
-ptx_opcode_latency_sfu                   21 # Opcode latencies for SFU instructionsDefault 8
-ptx_opcode_latency_tesnor                   64 # Opcode latencies for Tensor instructionsDefault 64
-ptx_opcode_initiation_int            2,2,2,2,2 # Opcode initiation intervals for integers <ADD,MAX,MUL,MAD,DIV,SHFL>Default 1,1,4,4,32,4
-ptx_opcode_initiation_fp            2,2,2,2,4 # Opcode initiation intervals for single precision floating points <ADD,MAX,MUL,MAD,DIV>Default 1,1,1,1,5
-ptx_opcode_initiation_dp      64,64,64,64,130 # Opcode initiation intervals for double precision floating points <ADD,MAX,MUL,MAD,DIV>Default 8,8,8,8,130
-ptx_opcode_initiation_sfu                    8 # Opcode initiation intervals for sfu instructionsDefault 8
-ptx_opcode_initiation_tensor                   64 # Opcode initiation intervals for tensor instructionsDefault 64
-cdp_latency         7200,8000,100,12000,1600 # CDP API latency <cudaStreamCreateWithFlags, cudaGetParameterBufferV2_init_perWarp, cudaGetParameterBufferV2_perKernel, cudaLaunchDeviceV2_init_perWarp, cudaLaunchDevicV2_perKernel>Default 7200,8000,100,12000,1600
-network_mode                           2 # Interconnection network mode
-inter_config_file                   mesh # Interconnection network config file
-icnt_in_buffer_limit                  512 # in_buffer_limit
-icnt_out_buffer_limit                  512 # out_buffer_limit
-icnt_subnets                           2 # subnets
-icnt_arbiter_algo                      1 # arbiter_algo
-icnt_verbose                           0 # inct_verbose
-icnt_grant_cycles                      1 # grant_cycles
-gpgpu_ptx_use_cuobjdump                    1 # Use cuobjdump to extract ptx and sass from binaries
-gpgpu_experimental_lib_support                    0 # Try to extract code from cuda libraries [Broken because of unknown cudaGetExportTable]
-checkpoint_option                      0 #  checkpointing flag (0 = no checkpoint)
-checkpoint_kernel                      1 #  checkpointing during execution of which kernel (1- 1st kernel)
-checkpoint_CTA                         0 #  checkpointing after # of CTA (< less than total CTA)
-resume_option                          0 #  resume flag (0 = no resume)
-resume_kernel                          0 #  Resume from which kernel (1= 1st kernel)
-resume_CTA                             0 #  resume from which CTA 
-checkpoint_CTA_t                       0 #  resume from which CTA 
-checkpoint_insn_Y                      0 #  resume from which CTA 
-gpgpu_ptx_convert_to_ptxplus                    0 # Convert SASS (native ISA) to ptxplus and run ptxplus
-gpgpu_ptx_force_max_capability                   75 # Force maximum compute capability
-gpgpu_ptx_inst_debug_to_file                    0 # Dump executed instructions' debug information to file
-gpgpu_ptx_inst_debug_file       inst_debug.txt # Executed instructions' debug output file
-gpgpu_ptx_inst_debug_thread_uid                    1 # Thread UID for executed instructions' debug output
-gpgpu_simd_model                       1 # 1 = post-dominator
-gpgpu_shader_core_pipeline              1024:32 # shader core pipeline config, i.e., {<nthread>:<warpsize>}
-gpgpu_tex_cache:l1  N:4:128:256,L:R:m:N:L,T:512:8,128:2 # per-shader L1 texture cache  (READ-ONLY) config  {<nsets>:<bsize>:<assoc>,<rep>:<wr>:<alloc>:<wr_alloc>,<mshr>:<N>:<merge>,<mq>:<rf>}
-gpgpu_const_cache:l1 N:128:64:8,L:R:f:N:L,S:2:64,4 # per-shader L1 constant memory cache  (READ-ONLY) config  {<nsets>:<bsize>:<assoc>,<rep>:<wr>:<alloc>:<wr_alloc>,<mshr>:<N>:<merge>,<mq>} 
-gpgpu_cache:il1     N:64:128:16,L:R:f:N:L,S:2:48,4 # shader L1 instruction cache config  {<nsets>:<bsize>:<assoc>,<rep>:<wr>:<alloc>:<wr_alloc>,<mshr>:<N>:<merge>,<mq>} 
-gpgpu_cache:dl1     S:4:128:64,L:T:m:L:L,A:256:32,16:0,32 # per-shader L1 data cache config  {<nsets>:<bsize>:<assoc>,<rep>:<wr>:<alloc>:<wr_alloc>,<mshr>:<N>:<merge>,<mq> | none}
-gpgpu_l1_cache_write_ratio                   25 # L1D write ratio
-gpgpu_l1_banks                         4 # The number of L1 cache banks
-gpgpu_l1_banks_byte_interleaving                   32 # l1 banks byte interleaving granularity
-gpgpu_l1_banks_hashing_function                    0 # l1 banks hashing function
-gpgpu_l1_latency                      32 # L1 Hit Latency
-gpgpu_smem_latency                    30 # smem Latency
-gpgpu_cache:dl1PrefL1                 none # per-shader L1 data cache config  {<nsets>:<bsize>:<assoc>,<rep>:<wr>:<alloc>:<wr_alloc>,<mshr>:<N>:<merge>,<mq> | none}
-gpgpu_cache:dl1PrefShared                 none # per-shader L1 data cache config  {<nsets>:<bsize>:<assoc>,<rep>:<wr>:<alloc>:<wr_alloc>,<mshr>:<N>:<merge>,<mq> | none}
-gpgpu_gmem_skip_L1D                    0 # global memory access skip L1D cache (implements -Xptxas -dlcm=cg, default=no skip)
-gpgpu_perfect_mem                      0 # enable perfect memory mode (no cache miss)
-n_regfile_gating_group                    4 # group of lanes that should be read/written together)
-gpgpu_clock_gated_reg_file                    0 # enable clock gated reg file for power calculations
-gpgpu_clock_gated_lanes                    0 # enable clock gated lanes for power calculations
-gpgpu_shader_registers                65536 # Number of registers per shader core. Limits number of concurrent CTAs. (default 8192)
-gpgpu_registers_per_block                65536 # Maximum number of registers per CTA. (default 8192)
-gpgpu_ignore_resources_limitation                    0 # gpgpu_ignore_resources_limitation (default 0)
-gpgpu_shader_cta                      16 # Maximum number of concurrent CTAs in shader (default 32)
-gpgpu_num_cta_barriers                   16 # Maximum number of named barriers per CTA (default 16)
-gpgpu_n_clusters                      30 # number of processing clusters
-gpgpu_n_cores_per_cluster                    1 # number of simd cores per cluster
-gpgpu_n_cluster_ejection_buffer_size                   32 # number of packets in ejection buffer
-gpgpu_n_ldst_response_buffer_size                    2 # number of response packets in ld/st unit ejection buffer
-gpgpu_shmem_per_block                49152 # Size of shared memory per thread block or CTA (default 48kB)
-gpgpu_shmem_size                   65536 # Size of shared memory per shader core (default 16kB)
-gpgpu_shmem_option                 32,64 # Option list of shared memory sizes
-gpgpu_unified_l1d_size                   96 # Size of unified data cache(L1D + shared memory) in KB
-gpgpu_adaptive_cache_config                    1 # adaptive_cache_config
-gpgpu_shmem_sizeDefault                65536 # Size of shared memory per shader core (default 16kB)
-gpgpu_shmem_size_PrefL1                16384 # Size of shared memory per shader core (default 16kB)
-gpgpu_shmem_size_PrefShared                16384 # Size of shared memory per shader core (default 16kB)
-gpgpu_shmem_num_banks                   32 # Number of banks in the shared memory in each shader core (default 16)
-gpgpu_shmem_limited_broadcast                    0 # Limit shared memory to do one broadcast per cycle (default on)
-gpgpu_shmem_warp_parts                    1 # Number of portions a warp is divided into for shared memory bank conflict check 
-gpgpu_mem_unit_ports                    1 # The number of memory transactions allowed per core cycle
-gpgpu_shmem_warp_parts                    1 # Number of portions a warp is divided into for shared memory bank conflict check 
-gpgpu_warpdistro_shader                   -1 # Specify which shader core to collect the warp size distribution from
-gpgpu_warp_issue_shader                    0 # Specify which shader core to collect the warp issue distribution from
-gpgpu_local_mem_map                    1 # Mapping from local memory space address to simulated GPU physical address space (default = enabled)
-gpgpu_num_reg_banks                    8 # Number of register banks (default = 8)
-gpgpu_reg_bank_use_warp_id                    0 # Use warp ID in mapping registers to banks (default = off)
-gpgpu_sub_core_model                    1 # Sub Core Volta/Pascal model (default = off)
-gpgpu_enable_specialized_operand_collector                    0 # enable_specialized_operand_collector
-gpgpu_operand_collector_num_units_sp                    4 # number of collector units (default = 4)
-gpgpu_operand_collector_num_units_dp                    0 # number of collector units (default = 0)
-gpgpu_operand_collector_num_units_sfu                    4 # number of collector units (default = 4)
-gpgpu_operand_collector_num_units_int                    0 # number of collector units (default = 0)
-gpgpu_operand_collector_num_units_tensor_core                    4 # number of collector units (default = 4)
-gpgpu_operand_collector_num_units_mem                    2 # number of collector units (default = 2)
-gpgpu_operand_collector_num_units_gen                    8 # number of collector units (default = 0)
-gpgpu_operand_collector_num_in_ports_sp                    1 # number of collector unit in ports (default = 1)
-gpgpu_operand_collector_num_in_ports_dp                    0 # number of collector unit in ports (default = 0)
-gpgpu_operand_collector_num_in_ports_sfu                    1 # number of collector unit in ports (default = 1)
-gpgpu_operand_collector_num_in_ports_int                    0 # number of collector unit in ports (default = 0)
-gpgpu_operand_collector_num_in_ports_tensor_core                    1 # number of collector unit in ports (default = 1)
-gpgpu_operand_collector_num_in_ports_mem                    1 # number of collector unit in ports (default = 1)
-gpgpu_operand_collector_num_in_ports_gen                    8 # number of collector unit in ports (default = 0)
-gpgpu_operand_collector_num_out_ports_sp                    1 # number of collector unit in ports (default = 1)
-gpgpu_operand_collector_num_out_ports_dp                    0 # number of collector unit in ports (default = 0)
-gpgpu_operand_collector_num_out_ports_sfu                    1 # number of collector unit in ports (default = 1)
-gpgpu_operand_collector_num_out_ports_int                    0 # number of collector unit in ports (default = 0)
-gpgpu_operand_collector_num_out_ports_tensor_core                    1 # number of collector unit in ports (default = 1)
-gpgpu_operand_collector_num_out_ports_mem                    1 # number of collector unit in ports (default = 1)
-gpgpu_operand_collector_num_out_ports_gen                    8 # number of collector unit in ports (default = 0)
-gpgpu_coalesce_arch                   75 # Coalescing arch (GT200 = 13, Fermi = 20)
-gpgpu_num_sched_per_core                    4 # Number of warp schedulers per core
-gpgpu_max_insn_issue_per_warp                    1 # Max number of instructions that can be issued per warp in one cycle by scheduler (either 1 or 2)
-gpgpu_dual_issue_diff_exec_units                    1 # should dual issue use two different execution unit resources (Default = 1)
-gpgpu_simt_core_sim_order                    1 # Select the simulation order of cores in a cluster (0=Fix, 1=Round-Robin)
-gpgpu_pipeline_widths 4,4,4,4,4,4,4,4,4,4,8,4,4 # Pipeline widths ID_OC_SP,ID_OC_DP,ID_OC_INT,ID_OC_SFU,ID_OC_MEM,OC_EX_SP,OC_EX_DP,OC_EX_INT,OC_EX_SFU,OC_EX_MEM,EX_WB,ID_OC_TENSOR_CORE,OC_EX_TENSOR_CORE
-gpgpu_tensor_core_avail                    1 # Tensor Core Available (default=0)
-gpgpu_num_sp_units                     4 # Number of SP units (default=1)
-gpgpu_num_dp_units                     4 # Number of DP units (default=0)
-gpgpu_num_int_units                    4 # Number of INT units (default=0)
-gpgpu_num_sfu_units                    4 # Number of SF units (default=1)
-gpgpu_num_tensor_core_units                    4 # Number of tensor_core units (default=1)
-gpgpu_num_mem_units                    1 # Number if ldst units (default=1) WARNING: not hooked up to anything
-gpgpu_scheduler                      lrr # Scheduler configuration: < lrr | gto | two_level_active > If two_level_active:<num_active_warps>:<inner_prioritization>:<outer_prioritization>For complete list of prioritization values see shader.h enum scheduler_prioritization_typeDefault: gto
-gpgpu_concurrent_kernel_sm                    0 # Support concurrent kernels on a SM (default = disabled)
-gpgpu_perfect_inst_const_cache                    1 # perfect inst and const cache mode, so all inst and const hits in the cache(default = disabled)
-gpgpu_inst_fetch_throughput                    4 # the number of fetched intruction per warp each cycle
-gpgpu_reg_file_port_throughput                    2 # the number ports of the register file
-specialized_unit_1         0,4,4,4,4,BRA # specialized unit config {<enabled>,<num_units>:<latency>:<initiation>,<ID_OC_SPEC>:<OC_EX_SPEC>,<NAME>}
-specialized_unit_2         0,4,4,4,4,BRA # specialized unit config {<enabled>,<num_units>:<latency>:<initiation>,<ID_OC_SPEC>:<OC_EX_SPEC>,<NAME>}
-specialized_unit_3         0,4,4,4,4,BRA # specialized unit config {<enabled>,<num_units>:<latency>:<initiation>,<ID_OC_SPEC>:<OC_EX_SPEC>,<NAME>}
-specialized_unit_4         0,4,4,4,4,BRA # specialized unit config {<enabled>,<num_units>:<latency>:<initiation>,<ID_OC_SPEC>:<OC_EX_SPEC>,<NAME>}
-specialized_unit_5         0,4,4,4,4,BRA # specialized unit config {<enabled>,<num_units>:<latency>:<initiation>,<ID_OC_SPEC>:<OC_EX_SPEC>,<NAME>}
-specialized_unit_6         0,4,4,4,4,BRA # specialized unit config {<enabled>,<num_units>:<latency>:<initiation>,<ID_OC_SPEC>:<OC_EX_SPEC>,<NAME>}
-specialized_unit_7         0,4,4,4,4,BRA # specialized unit config {<enabled>,<num_units>:<latency>:<initiation>,<ID_OC_SPEC>:<OC_EX_SPEC>,<NAME>}
-specialized_unit_8         0,4,4,4,4,BRA # specialized unit config {<enabled>,<num_units>:<latency>:<initiation>,<ID_OC_SPEC>:<OC_EX_SPEC>,<NAME>}
-gpgpu_perf_sim_memcpy                    1 # Fill the L2 cache on memcpy
-gpgpu_simple_dram_model                    0 # simple_dram_model with fixed latency and BW
-gpgpu_dram_scheduler                    1 # 0 = fifo, 1 = FR-FCFS (defaul)
-gpgpu_dram_partition_queues          64:64:64:64 # i2$:$2d:d2$:$2i
-l2_ideal                               0 # Use a ideal L2 cache that always hit
-gpgpu_cache:dl2     S:64:128:16,L:B:m:L:P,A:192:4,32:0,32 # unified banked L2 data cache config  {<nsets>:<bsize>:<assoc>,<rep>:<wr>:<alloc>:<wr_alloc>,<mshr>:<N>:<merge>,<mq>}
-gpgpu_cache:dl2_texture_only                    0 # L2 cache used for texture only
-gpgpu_n_mem                           12 # number of memory modules (e.g. memory controllers) in gpu
-gpgpu_n_sub_partition_per_mchannel                    2 # number of memory subpartition in each memory module
-gpgpu_n_mem_per_ctrlr                    1 # number of memory chips per memory controller
-gpgpu_memlatency_stat                   14 # track and display latency statistics 0x2 enables MC, 0x4 enables queue logs
-gpgpu_frfcfs_dram_sched_queue_size                   64 # 0 = unlimited (default); # entries per chip
-gpgpu_dram_return_queue_size                  192 # 0 = unlimited (default); # entries per chip
-gpgpu_dram_buswidth                    2 # default = 4 bytes (8 bytes per cycle at DDR)
-gpgpu_dram_burst_length                   16 # Burst length of each DRAM request (default = 4 data bus cycle)
-dram_data_command_freq_ratio                    4 # Frequency ratio between DRAM data bus and command bus (default = 2 times, i.e. DDR)
-gpgpu_dram_timing_opt nbk=16:CCD=4:RRD=12:RCD=24:RAS=55:RP=24:RC=78:CL=24:WL=8:CDLR=10:WR=24:nbkgrp=4:CCDL=6:RTPL=4 # DRAM timing parameters = {nbk:tCCD:tRRD:tRCD:tRAS:tRP:tRC:CL:WL:tCDLR:tWR:nbkgrp:tCCDL:tRTPL}
-gpgpu_l2_rop_latency                  194 # ROP queue latency (default 85)
-dram_latency                          96 # DRAM latency (default 30)
-dram_dual_bus_interface                    0 # dual_bus_interface (default = 0) 
-dram_bnk_indexing_policy                    0 # dram_bnk_indexing_policy (0 = normal indexing, 1 = Xoring with the higher bits) (Default = 0)
-dram_bnkgrp_indexing_policy                    1 # dram_bnkgrp_indexing_policy (0 = take higher bits, 1 = take lower bits) (Default = 0)
-dram_seperate_write_queue_enable                    0 # Seperate_Write_Queue_Enable
-dram_write_queue_size             32:28:16 # Write_Queue_Size
-dram_elimnate_rw_turnaround                    0 # elimnate_rw_turnaround i.e set tWTR and tRTW = 0
-icnt_flit_size                        40 # icnt_flit_size
-icnt_flit_size                        40 # icnt_flit_size
-mem_profiler                           0 # memory access runtime profiling (0 = not enabled)
-gpgpu_mem_addr_mapping dramid@8;00000000.00000000.00000000.00000000.0000RRRR.RRRRRRRR.RBBBCCCC.BCCSSSSS # mapping memory address to dram model {dramid@<start bit>;<memory address map>}
-gpgpu_mem_addr_test                    0 # run sweep test to check address mapping for aliased address
-gpgpu_mem_address_mask                    1 # 0 = old addressing mask, 1 = new addressing mask, 2 = new add. mask + flipped bank sel and chip sel bits
-gpgpu_memory_partition_indexing                    0 # 0 = no indexing, 1 = bitwise xoring, 2 = IPoly, 3 = custom indexing
-accelwattch_xml_file accelwattch_sass_sim.xml # AccelWattch XML file
-power_simulation_enabled                    1 # Turn on power simulator (1=On, 0=Off)
-power_per_cycle_dump                    1 # Dump detailed power output each cycle
-hw_perf_file_name            hw_perf.csv # Hardware Performance Statistics file
-hw_perf_bench_name    hw_perf_bench_name # Kernel Name in Hardware Performance Statistics file
-power_simulation_mode                    0 # Switch performance counter input for power simulation (0=Sim, 1=HW, 2=HW-Sim Hybrid)
-dvfs_enabled                           1 # Turn on DVFS for power model
-aggregate_power_stats                    0 # Accumulate power across all kernels
-accelwattch_hybrid_perfsim_L1_RH                    0 # Get L1 Read Hits for Accelwattch-Hybrid from Accel-Sim
-accelwattch_hybrid_perfsim_L1_RM                    0 # Get L1 Read Misses for Accelwattch-Hybrid from Accel-Sim
-accelwattch_hybrid_perfsim_L1_WH                    0 # Get L1 Write Hits for Accelwattch-Hybrid from Accel-Sim
-accelwattch_hybrid_perfsim_L1_WM                    0 # Get L1 Write Misses for Accelwattch-Hybrid from Accel-Sim
-accelwattch_hybrid_perfsim_L2_RH                    0 # Get L2 Read Hits for Accelwattch-Hybrid from Accel-Sim
-accelwattch_hybrid_perfsim_L2_RM                    0 # Get L2 Read Misses for Accelwattch-Hybrid from Accel-Sim
-accelwattch_hybrid_perfsim_L2_WH                    0 # Get L2 Write Hits for Accelwattch-Hybrid from Accel-Sim
-accelwattch_hybrid_perfsim_L2_WM                    0 # Get L2 Write Misses for Accelwattch-Hybrid from Accel-Sim
-accelwattch_hybrid_perfsim_CC_ACC                    0 # Get Constant Cache Acesses for Accelwattch-Hybrid from Accel-Sim
-accelwattch_hybrid_perfsim_SHARED_ACC                    0 # Get Shared Memory Acesses for Accelwattch-Hybrid from Accel-Sim
-accelwattch_hybrid_perfsim_DRAM_RD                    0 # Get DRAM Reads for Accelwattch-Hybrid from Accel-Sim
-accelwattch_hybrid_perfsim_DRAM_WR                    0 # Get DRAM Writes for Accelwattch-Hybrid from Accel-Sim
-accelwattch_hybrid_perfsim_NOC                    0 # Get Interconnect Acesses for Accelwattch-Hybrid from Accel-Sim
-accelwattch_hybrid_perfsim_PIPE_DUTY                    0 # Get Pipeline Duty Cycle Acesses for Accelwattch-Hybrid from Accel-Sim
-accelwattch_hybrid_perfsim_NUM_SM_IDLE                    0 # Get Number of Idle SMs for Accelwattch-Hybrid from Accel-Sim
-accelwattch_hybrid_perfsim_CYCLES                    0 # Get Executed Cycles for Accelwattch-Hybrid from Accel-Sim
-accelwattch_hybrid_perfsim_VOLTAGE                    0 # Get Chip Voltage for Accelwattch-Hybrid from Accel-Sim
-power_trace_enabled                    0 # produce a file for the power trace (1=On, 0=Off)
-power_trace_zlevel                     0 # Compression level of the power trace output log (0=no comp, 9=highest)
-steady_power_levels_enabled                    0 # produce a file for the steady power levels (1=On, 0=Off)
-steady_state_definition                  8:4 # allowed deviation:number of samples
-gpgpu_max_cycle                        0 # terminates gpu simulation early (0 = no limit)
-gpgpu_max_insn                         0 # terminates gpu simulation early (0 = no limit)
-gpgpu_max_cta                          0 # terminates gpu simulation early (0 = no limit)
-gpgpu_max_completed_cta                    0 # terminates gpu simulation early (0 = no limit)
-gpgpu_runtime_stat                  1000 # display runtime statistics such as dram utilization {<freq>:<flag>}
-liveness_message_freq                    1 # Minimum number of seconds between simulation liveness messages (0 = always print)
-gpgpu_compute_capability_major                    7 # Major compute capability version number
-gpgpu_compute_capability_minor                    5 # Minor compute capability version number
-gpgpu_flush_l1_cache                    1 # Flush L1 cache at the end of each kernel call
-gpgpu_flush_l2_cache                    0 # Flush L2 cache at the end of each kernel call
-gpgpu_deadlock_detect                    1 # Stop the simulation at deadlock (1=on (default), 0=off)
-gpgpu_ptx_instruction_classification                    0 # if enabled will classify ptx instruction types per kernel (Max 255 kernels now)
-gpgpu_ptx_sim_mode                     0 # Select between Performance (default) or Functional simulation (1)
-gpgpu_clock_domains 1365:1365:1365:3500.5 # Clock Domain Frequencies in MhZ {<Core Clock>:<ICNT Clock>:<L2 Clock>:<DRAM Clock>}
-gpgpu_max_concurrent_kernel                  128 # maximum kernels that can run concurrently on GPU, set this value according to max resident grids for your compute capability
-gpgpu_cflog_interval                    0 # Interval between each snapshot in control flow logger
-visualizer_enabled                     0 # Turn on visualizer output (1=On, 0=Off)
-visualizer_outputfile                 NULL # Specifies the output log file for visualizer
-visualizer_zlevel                      6 # Compression level of the visualizer output log (0=no comp, 9=highest)
-gpgpu_stack_size_limit                 1024 # GPU thread stack size
-gpgpu_heap_size_limit              8388608 # GPU malloc heap size 
-gpgpu_runtime_sync_depth_limit                    2 # GPU device runtime synchronize depth
-gpgpu_runtime_pending_launch_count_limit                 2048 # GPU device runtime pending launch count
-trace_enabled                          0 # Turn on traces
-trace_components                    none # comma seperated list of traces to enable. Complete list found in trace_streams.tup. Default none
-trace_sampling_core                    0 # The core which is printed using CORE_DPRINTF. Default 0
-trace_sampling_memory_partition                   -1 # The memory partition which is printed using MEMPART_DPRINTF. Default -1 (i.e. all)
-enable_ptx_file_line_stats                    1 # Turn on PTX source line statistic profiling. (1 = On)
-ptx_line_stats_filename gpgpu_inst_stats.txt # Output file for PTX source line statistics.
-gpgpu_kernel_launch_latency                 5000 # Kernel launch latency in cycles. Default: 0
-gpgpu_cdp_enabled                      0 # Turn on CDP
-gpgpu_TB_launch_latency                    0 # thread block launch latency in cycles. Default: 0
-mem_runtime_stat                     100 # memory access runtime profiling sampling849372315c13957bc671de4b81b61bb9  /home/pars/Documents/sim_3/cc_base
Extracting PTX file and ptxas options    1: cc_base.1.sm_75.ptx -arch=sm_75
 freq
-L1D_metrics                            0 # memory access runtime profiling for L1 data cache
-IPC_per_prof_interval                    0 # IPC per profiling interval
-instruction_monitor                    0 # Instruction monitor
-noncoal_metrics                        0 # memory access runtime profiling for shared memory
-L2_metrics                             0 # memory access runtime profiling for L2 cache
-DRAM_metrics                           0 # memory access runtime profiling for DRAM
-Shmem_metrics                          0 # memory access runtime profiling for noncoalesced accesses
-store_enable                           0 # Enable stores for memory profiling
-accumulate_stats                       0 # Accumulate stats for the memory profiling
-dump_enable                            0 # Process dump enable flag - (def = 0)
-flush_l1d                              0 # Enable flushings for L1D caches - (default = 0)
-flush_l2                               0 # Enable flushings for L2 caches - (default = 0)
-flush_dram                             0 # Enable flushings for DRAM - (default = 0)
-flush_noncoalesceds                    0 # Enable flushings for non coalesced accesses - (default = 0)
-flush_shmems                           0 # Enable flushings for shared memory accesses - (default = 0)
-error_percentage          21474836480001 # Error percentage for the flushes - (default = 1)
-dump_sampling_cycle       21474836485000 # Dump sampling frequency - (default = 5000)
-flush_acc_type                         2 # Flush access types
-monitor_sampling_cycle                 5000 # Monitoring sampling cycle - (default = 5000)
DRAM Timing Options:
nbk                                    16 # number of banks
CCD                                     4 # column to column delay
RRD                                    12 # minimal delay between activation of rows in different banks
RCD                                    24 # row to column delay
RAS                                    55 # time needed to activate row
RP                                     24 # time needed to precharge (deactivate) row
RC                                     78 # row cycle time
CDLR                                   10 # switching from write to read (changes tWTR)
WR                                     24 # last data-in to row precharge
CL                                     24 # CAS latency
WL                                      8 # Write latency
nbkgrp                                  4 # number of bank groups
CCDL                                    6 # column to column delay between accesses to different bank groups
RTPL                                    4 # read to precharge delay between accesses to different bank groups
Total number of memory sub partition = 24
addr_dec_mask[CHIP]  = 0000000000000000 	high:64 low:0
addr_dec_mask[BK]    = 0000000000007080 	high:15 low:7
addr_dec_mask[ROW]   = 000000000fff8000 	high:28 low:15
addr_dec_mask[COL]   = 0000000000000f7f 	high:12 low:0
addr_dec_mask[BURST] = 000000000000001f 	high:5 low:0
sub_partition_id_mask = 0000000000000080
GPGPU-Sim uArch: clock freqs: 1365000000.000000:1365000000.000000:1365000000.000000:3500500000.000000
GPGPU-Sim uArch: clock periods: 0.00000000073260073260:0.00000000073260073260:0.00000000073260073260:0.00000000028567347522
*** Initializing Memory Statistics ***
GPGPU-Sim uArch: performance model initialization complete.
self exe links to: /home/pars/Documents/sim_3/cc_base
self exe links to: /home/pars/Documents/sim_3/cc_base
11.0
GPGPU-Sim PTX: __cudaRegisterFatBinary, fat_cubin_handle = 1, filename=default
self exe links to: /home/pars/Documents/sim_3/cc_base
Running md5sum using "md5sum /home/pars/Documents/sim_3/cc_base "
self exe links to: /home/pars/Documents/sim_3/cc_base
Extracting specific PTX file named cc_base.1.sm_75.ptx 
GPGPU-Sim PTX: __cudaRegisterFunction _Z8shortcutiPi : hostFun 0x0x560df8bd0dd1, fat_cubin_handle = 1
GPGPU-Sim PTX: Parsing cc_base.1.sm_75.ptx
GPGPU-Sim PTX: Warning -- ignoring pragma 'nounroll'
GPGPU-Sim PTX: instruction assembly for function '_Z4hookiPKmPKiPiPb'...   done.
GPGPU-Sim PTX: instruction assembly for function '_Z8shortcutiPi'...   done.
GPGPU-Sim PTX: finished parsing EMBEDDED .ptx file cc_base.1.sm_75.ptx
GPGPU-Sim PTX: loading globals with explicit initializers... 
GPGPU-Sim PTX: finished loading globals (0 bytes total).
GPGPU-Sim PTX: loading constants with explicit initializers...  done.
GPGPU-Sim PTX: Loading PTXInfo from cc_base.1.sm_75.ptx
GPGPU-Sim PTX: Kernel '_Z8shortcutiPi' : regs=12, lmem=0, smem=0, cmem=368
GPGPU-Sim PTX: Kernel '_Z4hookiPKmPKiPiPb' : regs=18, lmem=0, smem=0, cmem=392
GPGPU-Sim PTX: __cudaRegisterFunction _Z4hookiPKmPKiPiPb : hostFun 0x0x560df8bd0c56, fat_cubin_handle = 1
Connected Component by Xuhao Chen
Reading (.mtx) input file ../CudaBenchmarks/gardenia/datasets/higgs-twitter.mtx
Removing redundent edges... 4694812 redundent edges are removed
|V| 456626 |E| 25016826
This graph is symmetrized
Launching CUDA CC solver (1784 CTAs, 256 threads/CTA) ...
GPGPU-Sim PTX: Setting up arguments for 4 bytes starting at 0x7ffcc760b70c..
GPGPU-Sim PTX: Setting up arguments for 8 bytes starting at 0x7ffcc760b700..
GPGPU-Sim PTX: Setting up arguments for 8 bytes starting at 0x7ffcc760b6f8..
GPGPU-Sim PTX: Setting up arguments for 8 bytes starting at 0x7ffcc760b6f0..
GPGPU-Sim PTX: Setting up arguments for 8 bytes starting at 0x7ffcc760b6e8..

GPGPU-Sim PTX: cudaLaunch for 0x0x560df8bd0c56 (mode=performance simulation) on stream 0
GPGPU-Sim PTX: finding reconvergence points for '_Z4hookiPKmPKiPiPb'...
GPGPU-Sim PTX: Finding dominators for '_Z4hookiPKmPKiPiPb'...
GPGPU-Sim PTX: Finding immediate dominators for '_Z4hookiPKmPKiPiPb'...
GPGPU-Sim PTX: Finding postdominators for '_Z4hookiPKmPKiPiPb'...
GPGPU-Sim PTX: Finding immediate postdominators for '_Z4hookiPKmPKiPiPb'...
GPGPU-Sim PTX: pre-decoding instructions for '_Z4hookiPKmPKiPiPb'...
GPGPU-Sim PTX: reconvergence points for _Z4hookiPKmPKiPiPb...
GPGPU-Sim PTX:  1 (potential) branch divergence @  PC=0x068 (cc_base.1.sm_75.ptx:42) @%p1 bra $L__BB0_23;

GPGPU-Sim PTX:    immediate post dominator      @  PC=0x408 (cc_base.1.sm_75.ptx:201) ret;

GPGPU-Sim PTX:  2 (potential) branch divergence @  PC=0x0b8 (cc_base.1.sm_75.ptx:53) @%p2 bra $L__BB0_23;

GPGPU-Sim PTX:    immediate post dominator      @  PC=0x408 (cc_base.1.sm_75.ptx:201) ret;

GPGPU-Sim PTX:  3 (potential) branch divergence @  PC=0x0e0 (cc_base.1.sm_75.ptx:59) @%p3 bra $L__BB0_8;

GPGPU-Sim PTX:    immediate post dominator      @  PC=0x1b0 (cc_base.1.sm_75.ptx:97) not.b32 %r33, %r3;

GPGPU-Sim PTX:  4 (potential) branch divergence @  PC=0x130 (cc_base.1.sm_75.ptx:75) @%p4 bra $L__BB0_7;

GPGPU-Sim PTX:    immediate post dominator      @  PC=0x188 (cc_base.1.sm_75.ptx:90) add.s32 %r57, %r57, 1;

GPGPU-Sim PTX:  5 (potential) branch divergence @  PC=0x170 (cc_base.1.sm_75.ptx:84) @%p5 bra $L__BB0_7;

GPGPU-Sim PTX:    immediate post dominator      @  PC=0x188 (cc_base.1.sm_75.ptx:90) add.s32 %r57, %r57, 1;

GPGPU-Sim PTX:  6 (potential) branch divergence @  PC=0x1a8 (cc_base.1.sm_75.ptx:94) @%p6 bra $L__BB0_4;

GPGPU-Sim PTX:    immediate post dominator      @  PC=0x1b0 (cc_base.1.sm_75.ptx:97) not.b32 %r33, %r3;

GPGPU-Sim PTX:  7 (potential) branch divergence @  PC=0x1c8 (cc_base.1.sm_75.ptx:100) @%p7 bra $L__BB0_23;

GPGPU-Sim PTX:    immediate post dominator      @  PC=0x408 (cc_base.1.sm_75.ptx:201) ret;

GPGPU-Sim PTX:  8 (potential) branch divergence @  PC=0x210 (cc_base.1.sm_75.ptx:114) @%p8 bra $L__BB0_13;

GPGPU-Sim PTX:    immediate post dominator      @  PC=0x268 (cc_base.1.sm_75.ptx:129) ld.global.u32 %r41, [%rd42+4];

GPGPU-Sim PTX:  9 (potential) branch divergence @  PC=0x250 (cc_base.1.sm_75.ptx:123) @%p9 bra $L__BB0_13;

GPGPU-Sim PTX:    immediate post dominator      @  PC=0x268 (cc_base.1.sm_75.ptx:129) ld.global.u32 %r41, [%rd42+4];

GPGPU-Sim PTX: 10 (potential) branch divergence @  PC=0x290 (cc_base.1.sm_75.ptx:136) @%p10 bra $L__BB0_16;

GPGPU-Sim PTX:    immediate post dominator      @  PC=0x2e8 (cc_base.1.sm_75.ptx:151) ld.global.u32 %r46, [%rd42+8];

GPGPU-Sim PTX: 11 (potential) branch divergence @  PC=0x2d0 (cc_base.1.sm_75.ptx:145) @%p11 bra $L__BB0_16;

GPGPU-Sim PTX:    immediate post dominator      @  PC=0x2e8 (cc_base.1.sm_75.ptx:151) ld.global.u32 %r46, [%rd42+8];

GPGPU-Sim PTX: 12 (potential) branch divergence @  PC=0x310 (cc_base.1.sm_75.ptx:158) @%p12 bra $L__BB0_19;

GPGPU-Sim PTX:    immediate post dominator      @  PC=0x368 (cc_base.1.sm_75.ptx:173) ld.global.u32 %r51, [%rd42+12];

GPGPU-Sim PTX: 13 (potential) branch divergence @  PC=0x350 (cc_base.1.sm_75.ptx:167) @%p13 bra $L__BB0_19;

GPGPU-Sim PTX:    immediate post dominator      @  PC=0x368 (cc_base.1.sm_75.ptx:173) ld.global.u32 %r51, [%rd42+12];

GPGPU-Sim PTX: 14 (potential) branch divergence @  PC=0x390 (cc_base.1.sm_75.ptx:180) @%p14 bra $L__BB0_22;

GPGPU-Sim PTX:    immediate post dominator      @  PC=0x3e8 (cc_base.1.sm_75.ptx:195) add.s32 %r57, %r57, 4;

GPGPU-Sim PTX: 15 (potential) branch divergence @  PC=0x3d0 (cc_base.1.sm_75.ptx:189) @%p15 bra $L__BB0_22;

GPGPU-Sim PTX:    immediate post dominator      @  PC=0x3e8 (cc_base.1.sm_75.ptx:195) add.s32 %r57, %r57, 4;

GPGPU-Sim PTX: 16 (potential) branch divergence @  PC=0x400 (cc_base.1.sm_75.ptx:198) @%p16 bra $L__BB0_10;

GPGPU-Sim PTX:    immediate post dominator      @  PC=0x408 (cc_base.1.sm_75.ptx:201) ret;

GPGPU-Sim PTX: ... end of reconvergence points for _Z4hookiPKmPKiPiPb
GPGPU-Sim PTX: ... done pre-decoding instructions for '_Z4hookiPKmPKiPiPb'.
GPGPU-Sim PTX: pushing kernel '_Z4hookiPKmPKiPiPb' to stream 0, gridDim= (1784,1,1) blockDim = (256,1,1) 
GPGPU-Sim uArch: Shader 0 bind to kernel 1 '_Z4hookiPKmPKiPiPb'
GPGPU-Sim uArch: CTA/core = 4, limited by: threads
GPGPU-Sim: Reconfigure L1 cache to 64KB
GPGPU-Sim uArch: Shader 1 bind to kernel 1 '_Z4hookiPKmPKiPiPb'
GPGPU-Sim uArch: Shader 2 bind to kernel 1 '_Z4hookiPKmPKiPiPb'
GPGPU-Sim uArch: Shader 3 bind to kernel 1 '_Z4hookiPKmPKiPiPb'
GPGPU-Sim uArch: Shader 4 bind to kernel 1 '_Z4hookiPKmPKiPiPb'
GPGPU-Sim uArch: Shader 5 bind to kernel 1 '_Z4hookiPKmPKiPiPb'
GPGPU-Sim uArch: Shader 6 bind to kernel 1 '_Z4hookiPKmPKiPiPb'
GPGPU-Sim uArch: Shader 7 bind to kernel 1 '_Z4hookiPKmPKiPiPb'
GPGPU-Sim uArch: Shader 8 bind to kernel 1 '_Z4hookiPKmPKiPiPb'
GPGPU-Sim uArch: Shader 9 bind to kernel 1 '_Z4hookiPKmPKiPiPb'
GPGPU-Sim uArch: Shader 10 bind to kernel 1 '_Z4hookiPKmPKiPiPb'
GPGPU-Sim uArch: Shader 11 bind to kernel 1 '_Z4hookiPKmPKiPiPb'
GPGPU-Sim uArch: Shader 12 bind to kernel 1 '_Z4hookiPKmPKiPiPb'
GPGPU-Sim uArch: Shader 13 bind to kernel 1 '_Z4hookiPKmPKiPiPb'
GPGPU-Sim uArch: Shader 14 bind to kernel 1 '_Z4hookiPKmPKiPiPb'
GPGPU-Sim uArch: Shader 15 bind to kernel 1 '_Z4hookiPKmPKiPiPb'
GPGPU-Sim uArch: Shader 16 bind to kernel 1 '_Z4hookiPKmPKiPiPb'
GPGPU-Sim uArch: Shader 17 bind to kernel 1 '_Z4hookiPKmPKiPiPb'
GPGPU-Sim uArch: Shader 18 bind to kernel 1 '_Z4hookiPKmPKiPiPb'
GPGPU-Sim uArch: Shader 19 bind to kernel 1 '_Z4hookiPKmPKiPiPb'
GPGPU-Sim uArch: Shader 20 bind to kernel 1 '_Z4hookiPKmPKiPiPb'
GPGPU-Sim uArch: Shader 21 bind to kernel 1 '_Z4hookiPKmPKiPiPb'
GPGPU-Sim uArch: Shader 22 bind to kernel 1 '_Z4hookiPKmPKiPiPb'
GPGPU-Sim uArch: Shader 23 bind to kernel 1 '_Z4hookiPKmPKiPiPb'
GPGPU-Sim uArch: Shader 24 bind to kernel 1 '_Z4hookiPKmPKiPiPb'
GPGPU-Sim uArch: Shader 25 bind to kernel 1 '_Z4hookiPKmPKiPiPb'
GPGPU-Sim uArch: Shader 26 bind to kernel 1 '_Z4hookiPKmPKiPiPb'
GPGPU-Sim uArch: Shader 27 bind to kernel 1 '_Z4hookiPKmPKiPiPb'
GPGPU-Sim uArch: Shader 28 bind to kernel 1 '_Z4hookiPKmPKiPiPb'
GPGPU-Sim uArch: Shader 29 bind to kernel 1 '_Z4hookiPKmPKiPiPb'
Destroy streams for kernel 1: size 0
kernel_name = _Z4hookiPKmPKiPiPb 
kernel_launch_uid = 1 
gpu_sim_cycle = 34634927
gpu_sim_insn = 366909930
gpu_ipc =      10.5936
gpu_tot_sim_cycle = 34634927
gpu_tot_sim_insn = 366909930
gpu_tot_ipc =      10.5936
gpu_tot_issued_cta = 1784
gpu_occupancy = 31.8239% 
gpu_tot_occupancy = 31.8239% 
max_total_param_size = 0
gpu_stall_dramfull = 1054942
gpu_stall_icnt2sh    = 0
partiton_level_parallism =       1.4085
partiton_level_parallism_total  =       1.4085
partiton_level_parallism_util =       5.9687
partiton_level_parallism_util_total  =       5.9687
L2_BW  =      61.5246 GB/Sec
L2_BW_total  =      61.5246 GB/Sec
gpu_total_sim_rate=4274

========= Core cache stats =========
L1I_cache:
	L1I_total_cache_accesses = 0
	L1I_total_cache_misses = 0
	L1I_total_cache_pending_hits = 0
	L1I_total_cache_reservation_fails = 0
L1D_cache:
	L1D_cache_core[0]: Access = 3421744, Miss = 2238823, Miss_rate = 0.654, Pending_hits = 20651, Reservation_fails = 910160
	L1D_cache_core[1]: Access = 3403979, Miss = 2301645, Miss_rate = 0.676, Pending_hits = 25385, Reservation_fails = 1037332
	L1D_cache_core[2]: Access = 2662136, Miss = 1814632, Miss_rate = 0.682, Pending_hits = 28841, Reservation_fails = 1061246
	L1D_cache_core[3]: Access = 2528224, Miss = 1740362, Miss_rate = 0.688, Pending_hits = 26858, Reservation_fails = 992443
	L1D_cache_core[4]: Access = 2124530, Miss = 1327996, Miss_rate = 0.625, Pending_hits = 20854, Reservation_fails = 989883
	L1D_cache_core[5]: Access = 1705339, Miss = 1071792, Miss_rate = 0.628, Pending_hits = 14714, Reservation_fails = 685306
	L1D_cache_core[6]: Access = 2586278, Miss = 1777555, Miss_rate = 0.687, Pending_hits = 35949, Reservation_fails = 1090299
	L1D_cache_core[7]: Access = 2721194, Miss = 1908941, Miss_rate = 0.702, Pending_hits = 35151, Reservation_fails = 1105831
	L1D_cache_core[8]: Access = 2583321, Miss = 1757875, Miss_rate = 0.680, Pending_hits = 33501, Reservation_fails = 1045949
	L1D_cache_core[9]: Access = 2288491, Miss = 1561680, Miss_rate = 0.682, Pending_hits = 28690, Reservation_fails = 1043650
	L1D_cache_core[10]: Access = 2275683, Miss = 1503304, Miss_rate = 0.661, Pending_hits = 25967, Reservation_fails = 895154
	L1D_cache_core[11]: Access = 2656705, Miss = 1772552, Miss_rate = 0.667, Pending_hits = 35303, Reservation_fails = 1013176
	L1D_cache_core[12]: Access = 2189329, Miss = 1464819, Miss_rate = 0.669, Pending_hits = 26929, Reservation_fails = 1021920
	L1D_cache_core[13]: Access = 2291418, Miss = 1541897, Miss_rate = 0.673, Pending_hits = 30600, Reservation_fails = 1027140
	L1D_cache_core[14]: Access = 1659647, Miss = 1019609, Miss_rate = 0.614, Pending_hits = 17902, Reservation_fails = 698439
	L1D_cache_core[15]: Access = 2563268, Miss = 1800746, Miss_rate = 0.703, Pending_hits = 36899, Reservation_fails = 1249547
	L1D_cache_core[16]: Access = 2211994, Miss = 1484943, Miss_rate = 0.671, Pending_hits = 27375, Reservation_fails = 937839
	L1D_cache_core[17]: Access = 1634685, Miss = 1038593, Miss_rate = 0.635, Pending_hits = 19262, Reservation_fails = 777432
	L1D_cache_core[18]: Access = 2360204, Miss = 1585481, Miss_rate = 0.672, Pending_hits = 34342, Reservation_fails = 1139356
	L1D_cache_core[19]: Access = 2387310, Miss = 1649081, Miss_rate = 0.691, Pending_hits = 34030, Reservation_fails = 1206482
	L1D_cache_core[20]: Access = 2421109, Miss = 1607983, Miss_rate = 0.664, Pending_hits = 31272, Reservation_fails = 972808
	L1D_cache_core[21]: Access = 2615884, Miss = 1889241, Miss_rate = 0.722, Pending_hits = 40574, Reservation_fails = 1294357
	L1D_cache_core[22]: Access = 2567561, Miss = 1832128, Miss_rate = 0.714, Pending_hits = 39188, Reservation_fails = 1431609
	L1D_cache_core[23]: Access = 2007873, Miss = 1321465, Miss_rate = 0.658, Pending_hits = 26778, Reservation_fails = 1011233
	L1D_cache_core[24]: Access = 1975912, Miss = 1322992, Miss_rate = 0.670, Pending_hits = 25107, Reservation_fails = 919553
	L1D_cache_core[25]: Access = 2595421, Miss = 1742904, Miss_rate = 0.672, Pending_hits = 36378, Reservation_fails = 981256
	L1D_cache_core[26]: Access = 2293274, Miss = 1490365, Miss_rate = 0.650, Pending_hits = 28431, Reservation_fails = 933993
	L1D_cache_core[27]: Access = 1911994, Miss = 1152083, Miss_rate = 0.603, Pending_hits = 18704, Reservation_fails = 850586
	L1D_cache_core[28]: Access = 2441016, Miss = 1678864, Miss_rate = 0.688, Pending_hits = 41310, Reservation_fails = 1228635
	L1D_cache_core[29]: Access = 2558246, Miss = 1674898, Miss_rate = 0.655, Pending_hits = 30033, Reservation_fails = 1064087
	L1D_total_cache_accesses = 71643769
	L1D_total_cache_misses = 48075249
	L1D_total_cache_miss_rate = 0.6710
	L1D_total_cache_pending_hits = 876978
	L1D_total_cache_reservation_fails = 30616701
	L1D_cache_data_port_util = 0.060
	L1D_cache_fill_port_util = 0.126
L1C_cache:
	L1C_total_cache_accesses = 0
	L1C_total_cache_misses = 0
	L1C_total_cache_pending_hits = 0
	L1C_total_cache_reservation_fails = 0
L1T_cache:
	L1T_total_cache_accesses = 0
	L1T_total_cache_misses = 0
	L1T_total_cache_pending_hits = 0
	L1T_total_cache_reservation_fails = 0

Total_core_cache_stats:
	Total_core_cache_stats_breakdown[GLOBAL_ACC_R][HIT] = 21982488
	Total_core_cache_stats_breakdown[GLOBAL_ACC_R][HIT_RESERVED] = 876947
	Total_core_cache_stats_breakdown[GLOBAL_ACC_R][MISS] = 40820752
	Total_core_cache_stats_breakdown[GLOBAL_ACC_R][RESERVATION_FAIL] = 30607408
	Total_core_cache_stats_breakdown[GLOBAL_ACC_R][SECTOR_MISS] = 7222239
	Total_core_cache_stats_breakdown[GLOBAL_ACC_R][MSHR_HIT] = 876947
	Total_core_cache_stats_breakdown[LOCAL_ACC_R][HIT] = 0
	Total_core_cache_stats_breakdown[LOCAL_ACC_R][HIT_RESERVED] = 0
	Total_core_cache_stats_breakdown[LOCAL_ACC_R][MISS] = 0
	Total_core_cache_stats_breakdown[LOCAL_ACC_R][RESERVATION_FAIL] = 0
	Total_core_cache_stats_breakdown[LOCAL_ACC_R][SECTOR_MISS] = 0
	Total_core_cache_stats_breakdown[LOCAL_ACC_R][MSHR_HIT] = 0
	Total_core_cache_stats_breakdown[CONST_ACC_R][HIT] = 0
	Total_core_cache_stats_breakdown[CONST_ACC_R][HIT_RESERVED] = 0
	Total_core_cache_stats_breakdown[CONST_ACC_R][MISS] = 0
	Total_core_cache_stats_breakdown[CONST_ACC_R][RESERVATION_FAIL] = 0
	Total_core_cache_stats_breakdown[CONST_ACC_R][SECTOR_MISS] = 0
	Total_core_cache_stats_breakdown[CONST_ACC_R][MSHR_HIT] = 0
	Total_core_cache_stats_breakdown[TEXTURE_ACC_R][HIT] = 0
	Total_core_cache_stats_breakdown[TEXTURE_ACC_R][HIT_RESERVED] = 0
	Total_core_cache_stats_breakdown[TEXTURE_ACC_R][MISS] = 0
	Total_core_cache_stats_breakdown[TEXTURE_ACC_R][RESERVATION_FAIL] = 0
	Total_core_cache_stats_breakdown[TEXTURE_ACC_R][SECTOR_MISS] = 0
	Total_core_cache_stats_breakdown[TEXTURE_ACC_R][MSHR_HIT] = 0
	Total_core_cache_stats_breakdown[GLOBAL_ACC_W][HIT] = 709054
	Total_core_cache_stats_breakdown[GLOBAL_ACC_W][HIT_RESERVED] = 31
	Total_core_cache_stats_breakdown[GLOBAL_ACC_W][MISS] = 32157
	Total_core_cache_stats_breakdown[GLOBAL_ACC_W][RESERVATION_FAIL] = 9293
	Total_core_cache_stats_breakdown[GLOBAL_ACC_W][SECTOR_MISS] = 101
	Total_core_cache_stats_breakdown[GLOBAL_ACC_W][MSHR_HIT] = 0
	Total_core_cache_stats_breakdown[LOCAL_ACC_W][HIT] = 0
	Total_core_cache_stats_breakdown[LOCAL_ACC_W][HIT_RESERVED] = 0
	Total_core_cache_stats_breakdown[LOCAL_ACC_W][MISS] = 0
	Total_core_cache_stats_breakdown[LOCAL_ACC_W][RESERVATION_FAIL] = 0
	Total_core_cache_stats_breakdown[LOCAL_ACC_W][SECTOR_MISS] = 0
	Total_core_cache_stats_breakdown[LOCAL_ACC_W][MSHR_HIT] = 0
	Total_core_cache_stats_breakdown[L1_WRBK_ACC][HIT] = 0
	Total_core_cache_stats_breakdown[L1_WRBK_ACC][HIT_RESERVED] = 0
	Total_core_cache_stats_breakdown[L1_WRBK_ACC][MISS] = 0
	Total_core_cache_stats_breakdown[L1_WRBK_ACC][RESERVATION_FAIL] = 0
	Total_core_cache_stats_breakdown[L1_WRBK_ACC][SECTOR_MISS] = 0
	Total_core_cache_stats_breakdown[L1_WRBK_ACC][MSHR_HIT] = 0
	Total_core_cache_stats_breakdown[L2_WRBK_ACC][HIT] = 0
	Total_core_cache_stats_breakdown[L2_WRBK_ACC][HIT_RESERVED] = 0
	Total_core_cache_stats_breakdown[L2_WRBK_ACC][MISS] = 0
	Total_core_cache_stats_breakdown[L2_WRBK_ACC][RESERVATION_FAIL] = 0
	Total_core_cache_stats_breakdown[L2_WRBK_ACC][SECTOR_MISS] = 0
	Total_core_cache_stats_breakdown[L2_WRBK_ACC][MSHR_HIT] = 0
	Total_core_cache_stats_breakdown[INST_ACC_R][HIT] = 0
	Total_core_cache_stats_breakdown[INST_ACC_R][HIT_RESERVED] = 0
	Total_core_cache_stats_breakdown[INST_ACC_R][MISS] = 0
	Total_core_cache_stats_breakdown[INST_ACC_R][RESERVATION_FAIL] = 0
	Total_core_cache_stats_breakdown[INST_ACC_R][SECTOR_MISS] = 0
	Total_core_cache_stats_breakdown[INST_ACC_R][MSHR_HIT] = 0
	Total_core_cache_stats_breakdown[L1_WR_ALLOC_R][HIT] = 0
	Total_core_cache_stats_breakdown[L1_WR_ALLOC_R][HIT_RESERVED] = 0
	Total_core_cache_stats_breakdown[L1_WR_ALLOC_R][MISS] = 0
	Total_core_cache_stats_breakdown[L1_WR_ALLOC_R][RESERVATION_FAIL] = 0
	Total_core_cache_stats_breakdown[L1_WR_ALLOC_R][SECTOR_MISS] = 0
	Total_core_cache_stats_breakdown[L1_WR_ALLOC_R][MSHR_HIT] = 0
	Total_core_cache_stats_breakdown[L2_WR_ALLOC_R][HIT] = 0
	Total_core_cache_stats_breakdown[L2_WR_ALLOC_R][HIT_RESERVED] = 0
	Total_core_cache_stats_breakdown[L2_WR_ALLOC_R][MISS] = 0
	Total_core_cache_stats_breakdown[L2_WR_ALLOC_R][RESERVATION_FAIL] = 0
	Total_core_cache_stats_breakdown[L2_WR_ALLOC_R][SECTOR_MISS] = 0
	Total_core_cache_stats_breakdown[L2_WR_ALLOC_R][MSHR_HIT] = 0
	Total_core_cache_stats_breakdown[GLOBAL_ACC_R][TOTAL_ACCESS] = 70902426
	Total_core_cache_stats_breakdown[GLOBAL_ACC_W][TOTAL_ACCESS] = 741343

Total_core_cache_fail_stats:
	Total_core_cache_fail_stats_breakdown[GLOBAL_ACC_R][LINE_ALLOC_FAIL] = 582011
	Total_core_cache_fail_stats_breakdown[GLOBAL_ACC_R][MISS_QUEUE_FULL] = 11651612
	Total_core_cache_fail_stats_breakdown[GLOBAL_ACC_R][MSHR_ENRTY_FAIL] = 18373785
	Total_core_cache_fail_stats_breakdown[GLOBAL_ACC_W][LINE_ALLOC_FAIL] = 8415
	Total_core_cache_fail_stats_breakdown[GLOBAL_ACC_W][MISS_QUEUE_FULL] = 878
ctas_completed 1784, Shader 0 warp_id issue ditsribution:
warp_id:
0, 1, 2, 3, 4, 5, 6, 7, 8, 9, 10, 11, 12, 13, 14, 15, 16, 17, 18, 19, 20, 21, 22, 23, 24, 25, 26, 27, 28, 29, 30, 31, 
distro:
490674, 222778, 679350, 34448, 662854, 122846, 727274, 91278, 128164, 24660, 35556, 108548, 16870, 3554, 32698, 185416, 31656, 41890, 137592, 38916, 43084, 38046, 39938, 39008, 88366, 76044, 80768, 52510, 90638, 88848, 76030, 53320, 
gpgpu_n_tot_thrd_icount = 2396597440
gpgpu_n_tot_w_icount = 74893670
gpgpu_n_stall_shd_mem = 27047816
gpgpu_n_mem_read_local = 0
gpgpu_n_mem_write_local = 0
gpgpu_n_mem_read_global = 48042991
gpgpu_n_mem_write_global = 741343
gpgpu_n_mem_texture = 0
gpgpu_n_mem_const = 0
gpgpu_n_load_insn  = 76100085
gpgpu_n_store_insn = 915756
gpgpu_n_shmem_insn = 0
gpgpu_n_sstarr_insn = 0
gpgpu_n_tex_insn = 0
gpgpu_n_const_mem_insn = 0
gpgpu_n_param_mem_insn = 2283520
gpgpu_n_shmem_bkconflict = 0
gpgpu_n_cache_bkconflict = 0
gpgpu_n_intrawarp_mshr_merge = 0
gpgpu_n_cmem_portconflict = 0
gpgpu_stall_shd_mem[c_mem][resource_stall] = 0
gpgpu_stall_shd_mem[s_mem][bk_conf] = 0
gpgpu_stall_shd_mem[gl_mem][resource_stall] = 25237284
gpgpu_stall_shd_mem[gl_mem][coal_stall] = 1810532
gpgpu_stall_shd_mem[gl_mem][data_port_stall] = 0
gpu_reg_bank_conflict_stalls = 0
Warp Occupancy Distribution:
Stall:956424	W0_Idle:433992559	W0_Scoreboard:1010714615	W1:31456246	W2:10883177	W3:6283587	W4:4112471	W5:2784234	W6:2151312	W7:1877725	W8:1606550	W9:1270394	W10:1036904	W11:950362	W12:835862	W13:734002	W14:679114	W15:620000	W16:570044	W17:531285	W18:490050	W19:470194	W20:434054	W21:430772	W22:412334	W23:405636	W24:398146	W25:384695	W26:365658	W27:354455	W28:341171	W29:339581	W30:350606	W31:371323	W32:961726
single_issue_nums: WS0:17973859	WS1:18492360	WS2:20654953	WS3:17772498	
dual_issue_nums: WS0:0	WS1:0	WS2:0	WS3:0	
traffic_breakdown_coretomem[GLOBAL_ACC_R] = 384343928 {8:48042991,}
traffic_breakdown_coretomem[GLOBAL_ACC_W] = 29653720 {40:741343,}
traffic_breakdown_memtocore[GLOBAL_ACC_R] = 1921719640 {40:48042991,}
traffic_breakdown_memtocore[GLOBAL_ACC_W] = 5930744 {8:741343,}
maxmflatency = 7590 
max_icnt2mem_latency = 4157 
maxmrqlatency = 4370 
max_icnt2sh_latency = 281 
averagemflatency = 327 
avg_icnt2mem_latency = 95 
avg_mrq_latency = 58 
avg_icnt2sh_latency = 7 
mrq_lat_table:3521210 	33182 	67542 	149585 	202847 	178752 	254331 	377500 	352164 	93621 	5842 	345 	16 	0 	0 	0 	0 	0 	0 	0 	0 	0 	0 	0 	0 	0 	0 	0 	0 	0 	0 	0 	
dq_lat_table:0 	0 	0 	0 	0 	0 	0 	0 	0 	0 	0 	0 	0 	0 	0 	0 	0 	0 	0 	0 	0 	0 	0 	0 	0 	0 	0 	0 	0 	0 	0 	0 	
mf_lat_table:0 	0 	0 	0 	0 	0 	0 	30253895 	15189361 	1931286 	1138751 	247873 	23168 	0 	0 	0 	0 	0 	0 	0 	0 	0 	0 	0 	0 	0 	0 	0 	0 	0 	0 	0 	
icnt2mem_lat_table:0 	0 	0 	0 	0 	38586241 	4077018 	2702221 	1577930 	1464269 	283143 	93509 	3 	0 	0 	0 	0 	0 	0 	0 	0 	0 	0 	0 	
icnt2sh_lat_table:0 	25484766 	11651474 	6563003 	3171032 	1420151 	460780 	33042 	86 	0 	0 	0 	0 	0 	0 	0 	0 	0 	0 	0 	0 	0 	0 	0 	
mf_lat_pw_table:0 	0 	0 	0 	0 	0 	0 	29417 	4780 	141 	287 	4 	0 	0 	0 	0 	0 	0 	0 	0 	0 	0 	0 	0 	0 	0 	0 	0 	0 	0 	0 	0 	
maximum concurrent accesses to same row:
dram[0]:        52        52        64        58        58        52        58        54        64        64        30        53        38        43        32        32 
dram[1]:        64        64        64        62        50        62        57        58        64        64        23        36        29        43        45        36 
dram[2]:        58        64        64        64        64        60        64        64        64        64        30        51        34        36        27        38 
dram[3]:        64        64        62        64        64        64        64        64        50        60        48        41        29        34        31        41 
dram[4]:        64        62        64        62        64        56        64        64        58        60        44        36        40        42        30        37 
dram[5]:        64        64        56        60        45        58        58        58        52        59        32        41        24        32        50        39 
dram[6]:        64        58        44        46        48        48        64        64        43        60        44        43        32        30        22        26 
dram[7]:        64        64        56        56        48        48        58        58        36        58        42        30        33        33        30        48 
dram[8]:        64        64        64        63        64        61        61        64        64        64        31        28        26        37        50        39 
dram[9]:        64        64        64        63        51        64        63        63        64        64        29        31        44        32        45        40 
dram[10]:        64        62        47        47        50        64        64        64        64        64        34        35        27        30        28        29 
dram[11]:        64        64        64        63        64        64        64        64        64        64        33        31        31        29        38        43 
maximum service time to same row:
dram[0]:  10523241   7257974   1454962   1448575   3342996   3336174   1374612    812091   6251312    795940   1693914    909768    702294    696604   2017172   2020711 
dram[1]:   9724352   5341224   1442462   1436152   3330370   2983804   1801367   1801343   3709866   3704207    681047    735478    690709    685835   2023654   2026217 
dram[2]:   7256378   9323307   1429833    883307   2777171   3309945   1801098   1801166   5291129   1097006    928618    933486    680327    675025   2029989   2033176 
dram[3]:  10498843  10495723    877368   1412502   3302955   3296567   1801375   1801336    618086    759690   1282345    944674    669729    664417   2035337   2039751 
dram[4]:   7255804  10488655   1406604   1400687   3287553   3279816   3475927   3847896    754161    748242   1293435   1689009    658536    652433   2042952   1476548 
dram[5]:   7255212   7255025   1394568   1388210   3920637   3917344   2373360   2373318    742514   1086458    961767    780052    645924    640022   2047105   2049059 
dram[6]:   9288535   9678450   1381072   1374350   3913842   3910514   2614048   1800533   1121055    722673    995349   1005112    634737    628244   2052006   2056980 
dram[7]:   7727747   7254454   1368503   1363389   5546868   3331158   1800501   1227773   1082501    712294    747168    606273    621907   7581937   2059712   2060212 
dram[8]:  10463893   9964493   1357077   1350536   3900096   3897001   1800690   5974155    705967   3593946    994181   1294648    609656    604366   2062946   2065872 
dram[9]:   7709918   7705754   1344010   1338516   3893704   3889993   2373125   1800483    692876    687388   1005744   1294292    597612    592296   4401523   2071354 
dram[10]:  10444481   7696832   1332822   1325877   4460130   4457263   2373167   1800195   5279317   3467839   2102045   2102252   1122076   1116372   2074085   2076432 
dram[11]:   7692465   9634022   1319127   1313176   4453569   4450475   1800181   1227747   1061389   1056714   2102449   1030958   1110464   1105170   2079372   2081293 
average row accesses per activate:
dram[0]:  1.260568  1.298299  1.269282  1.288632  1.279091  1.287926  1.271396  1.305664  1.269254  1.302590  1.279470  1.302623  1.282168  1.294213  1.282538  1.304166 
dram[1]:  1.299211  1.286327  1.288950  1.276661  1.273029  1.271902  1.300462  1.273123  1.307330  1.279367  1.305271  1.285466  1.284918  1.296381  1.289577  1.280128 
dram[2]:  1.271619  1.277325  1.278749  1.282057  1.271290  1.278952  1.272688  1.282639  1.275323  1.274114  1.277136  1.281506  1.301082  1.297894  1.295798  1.302929 
dram[3]:  1.283173  1.283190  1.292976  1.279267  1.279582  1.280768  1.273903  1.280171  1.281808  1.275543  1.284598  1.282708  1.302759  1.281612  1.295465  1.282122 
dram[4]:  1.283918  1.278424  1.281105  1.285349  1.283606  1.293176  1.264960  1.278028  1.269078  1.280422  1.276825  1.285290  1.285971  1.298381  1.273829  1.269296 
dram[5]:  1.277458  1.263291  1.283753  1.278753  1.296412  1.290748  1.285531  1.279521  1.281899  1.281139  1.283055  1.276766  1.293242  1.286914  1.271593  1.269913 
dram[6]:  1.262591  1.260146  1.282332  1.272072  1.275998  1.276914  1.278073  1.285535  1.285171  1.278766  1.285840  1.284476  1.281842  1.282288  1.269482  1.269923 
dram[7]:  1.283864  1.294281  1.286845  1.279033  1.274277  1.281275  1.289650  1.270340  1.291246  1.285086  1.280617  1.290410  1.277024  1.290043  1.266186  1.268743 
dram[8]:  1.261370  1.271155  1.264419  1.273122  1.288005  1.283401  1.263791  1.269530  1.277517  1.287968  1.280434  1.277552  1.294825  1.300732  1.263709  1.273159 
dram[9]:  1.271402  1.264376  1.268844  1.267511  1.279519  1.280084  1.278859  1.275442  1.293733  1.278744  1.284223  1.273859  1.278036  1.287616  1.273580  1.285145 
dram[10]:  1.266849  1.259098  1.257239  1.257728  1.270020  1.270293  1.279445  1.270788  1.271879  1.267828  1.275894  1.276345  1.282476  1.282605  1.277835  1.269588 
dram[11]:  1.262849  1.272206  1.261909  1.271195  1.280278  1.281323  1.268574  1.282926  1.258563  1.269334  1.275300  1.277548  1.280340  1.288676  1.260425  1.280688 
average row locality = 5236937/4091898 = 1.279831
number of total memory accesses made:
dram[0]:         0         0         0         0         0         0         0         0         0         0         0         0         0         0         0         0 
dram[1]:         0         0         0         0         0         0         0         0         0         0         0         0         0         0         0         0 
dram[2]:         0         0         0         0         0         0         0         0         0         0         0         0         0         0         0         0 
dram[3]:         0         0         0         0         0         0         0         0         0         0         0         0         0         0         0         0 
dram[4]:         0         0         0         0         0         0         0         0         0         0         0         0         0         0         0         0 
dram[5]:         0         0         0         0         0         0         0         0         0         0         0         0         0         0         0         0 
dram[6]:         0         0         0         0         0         0         0         0         0         0         0         0         0         0         0         0 
dram[7]:         0         0         0         0         0         0         0         0         0         0         0         0         0         0         0         0 
dram[8]:         0         0         0         0         0         0         0         0         0         0         0         0         0         0         0         0 
dram[9]:         0         0         0         0         0         0         0         0         0         0         0         0         0         0         0         0 
dram[10]:         0         0         0         0         0         0         0         0         0         0         0         0         0         0         0         0 
dram[11]:         0         0         0         0         0         0         0         0         0         0         0         0         0         0         0         0 
total accesses: 0
min_bank_accesses = 0!
min_chip_accesses = 0!
number of total read accesses:
dram[0]:     26596     27884     27350     28850     26195     27527     25725     26954     26103     27712     26501     27630     24242     25690     25085     26441 
dram[1]:     28674     27304     29250     28069     27530     26200     27094     25901     28013     26812     28435     26510     26054     25281     26722     25210 
dram[2]:     26832     27294     27970     28059     26071     26145     25579     25926     26645     26705     26129     26350     25167     25207     25319     25727 
dram[3]:     27560     27733     28283     28078     26636     26709     26428     26534     26891     26962     26441     26333     25085     24661     25834     25795 
dram[4]:     27950     27948     28301     28674     26643     27070     26220     26550     27281     26946     26838     26828     25116     25065     25668     25644 
dram[5]:     27489     26926     27756     28002     26657     26730     26255     26002     26766     26561     26612     26975     24554     24763     25554     25512 
dram[6]:     27289     27360     28025     28072     26420     26175     25719     25927     27144     27162     26857     26841     24862     24787     25479     25517 
dram[7]:     27751     27950     28058     28198     26382     26426     26148     25944     26916     27140     26348     26675     24711     24940     25476     25487 
dram[8]:     27230     27207     27802     27754     26279     26241     25776     25731     26977     27068     26653     26756     25008     24740     25149     25063 
dram[9]:     26919     26859     27888     28156     26373     26575     25551     25473     26819     26828     26319     26133     24598     24387     25474     25420 
dram[10]:     26787     26691     27861     27536     26493     26024     25450     25038     26364     25761     26327     26265     24694     24218     25423     25013 
dram[11]:     26823     27024     27368     27305     26224     26081     24939     25450     25656     26110     25981     25801     24276     24505     25034     25070 
total dram reads = 5077472
bank skew: 29250/24218 = 1.21
chip skew: 433059/413647 = 1.05
number of total write accesses:
dram[0]:      1454      1482      1647      1638      1404      1412      1266      1252      1336      1373      1349      1351      1154      1159      1233      1198 
dram[1]:      1523      1463      1716      1646      1434      1454      1262      1270      1342      1292      1383      1325      1154      1140      1318      1195 
dram[2]:      1490      1535      1676      1622      1437      1383      1243      1271      1362      1359      1356      1316      1179      1107      1216      1263 
dram[3]:      1478      1551      1682      1665      1336      1446      1267      1272      1334      1385      1351      1340      1122      1132      1238      1280 
dram[4]:      1521      1531      1639      1634      1427      1487      1205      1249      1401      1354      1356      1403      1098      1156      1300      1247 
dram[5]:      1520      1526      1647      1703      1379      1478      1275      1230      1341      1331      1411      1394      1098      1172      1290      1223 
dram[6]:      1530      1530      1699      1735      1461      1404      1211      1233      1409      1379      1329      1366      1124      1156      1289      1208 
dram[7]:      1501      1491      1701      1636      1483      1409      1278      1284      1331      1403      1336      1381      1177      1118      1228      1231 
dram[8]:      1513      1533      1698      1595      1413      1457      1241      1222      1365      1350      1345      1397      1186      1109      1231      1201 
dram[9]:      1468      1520      1643      1730      1441      1425      1195      1260      1337      1409      1363      1389      1144      1138      1279      1278 
dram[10]:      1542      1590      1712      1653      1454      1434      1285      1224      1395      1384      1361      1369      1188      1148      1225      1226 
dram[11]:      1560      1528      1659      1615      1446      1412      1206      1246      1358      1400      1342      1342      1200      1173      1283      1241 
total dram writes = 263472
bank skew: 1735/1098 = 1.58
chip skew: 22190/21708 = 1.02
average mf latency per bank:
dram[0]:       4418      5079      2225      3076      2280      2964      2018      2902      1941      2565      1837      2570      4464      6548      5064      6102
dram[1]:       4413      4602      2279      2040      2239      2017      2158      1950      1908      1803      1892      1770      4780      4090      5327      5340
dram[2]:       3976      4343      2040      2016      2075      2065      1980      1963      1770      1799      1717      1740      4465      4917      4612      4837
dram[3]:       4549      4160      2177      2105      2130      1986      2045      1959      1902      1848      1830      1775      4176      4517      5342      4886
dram[4]:       4381      4103      2602      2102      2428      2086      2271      1988      2066      1906      1964      1772      5290      4201      4951      4764
dram[5]:       4015      4239      2071      2069      2054      2142      1856      1910      1812      1746      1701      1741      4462      4130      5341      4982
dram[6]:       4162      4294      2044      2033      2250      2169      1983      1966      1765      1815      1762      1736      4677      5046      5081      5205
dram[7]:       4131      4452      2175      2248      2027      2226      1985      2129      1767      1926      1796      1911      4861      5293      5125      5787
dram[8]:       3972      4298      2089      2135      2071      2154      1968      2014      1766      1756      1715      1684      4506      4374      4970      4795
dram[9]:       4275      4414      2145      2097      2013      1966      5791      1896      1805      1682      1693      1704      5083      4920      4695      4291
dram[10]:       4664      4002      1916      1976      1983      2041      1885      1961      1771      1830      1764      1725      5251      4361      4229      4584
dram[11]:       3743      4005      2081      2022      2024      2061      1923      1927      1825      1759      1699      1723      4966      4930      4332      4444
maximum mf latency per bank:
dram[0]:       4920      6504      4416      6136      4678      5512      4462      5411      4423      5840      4322      5587      4409      5462      4629      6170
dram[1]:       4926      4446      3770      4375      4040      3945      4259      4528      4184      3667      3982      3853      4045      4297      4050      4125
dram[2]:       3614      4923      4490      4225      4324      4427      4081      4749      4326      4294      3743      4180      4006      4257      4281      4601
dram[3]:       4341      4436      4089      4324      3915      4255      4617      4084      3916      4114      3853      4063      3958      4204      4086      4365
dram[4]:       7590      4213      5342      4229      5401      4395      5777      4510      5520      4624      5195      4087      5583      3946      5895      4294
dram[5]:       3969      4740      3598      4430      3733      4016      3753      4126      4095      3645      3981      3971      3715      4123      4172      4485
dram[6]:       4127      5120      4111      4486      4097      4217      4203      4743      4210      4586      4009      4412      3925      4501      6252      5421
dram[7]:       4071      4353      3708      4102      4253      4246      3740      4500      3929      4285      3721      3942      3831      3714      3847      4531
dram[8]:       3943      4437      4274      4139      3916      4369      4146      4081      3896      4481      3745      4024      4106      4063      3973      4394
dram[9]:       4064      4042      4379      4206      4307      4491      4524      3771      4163      3507      3892      3782      3868      3911      3883      3875
dram[10]:       4714      4294      3536      3954      4326      4060      4011      3882      3558      3471      3966      3431      3724      3689      3967      3633
dram[11]:       4421      4338      3846      4790      4071      4569      4431      4440      4067      4209      3881      4257      3916      4360      3767      4119

Number of Memory Banks Accessed per Memory Operation per Warp (from 0):
0	0	0	0	0	0	0	0	0	0	0	0	0	0	0	0	0	0	0	0	0	0	0	0	0	0	0	0	0	0	0	0	0	0	0	0	0	0	0	0	0	0	0	0	0	0	0	0	0	0	0	0	0	0	0	0	0	0	0	0	0	0	0	0	0	0	0	0	0	0	0	0	0	0	0	0	0	0	0	0	0	0	0	0	0	0	0	0	0	0	0	0	0	0	0	0	0	0	0	0	0	0	0	0	0	0	0	0	0	0	0	0	0	0	0	0	0	0	0	0	0	0	0	0	0	0	0	0	0	0	0	0	0	0	0	0	0	0	0	0	0	0	0	0	0	0	0	0	0	0	0	0	0	0	0	0	0	0	0	0	0	0	0	0	0	0	0	0	0	0	0	0	0	0	0	0	0	0	0	0	0	0	0	0	0	0	0	0	0	0	0	0	
Average # of Memory Banks Accessed per Memory Operation per Warp=-nan

position of mrq chosen
0	0	0	0	0	0	0	0	0	0	0	0	0	0	0	0	0	0	0	0	0	0	0	0	0	0	0	0	0	0	0	0	0	0	0	0	0	0	0	0	0	0	0	0	0	0	0	0	0	0	0	0	0	0	0	0	0	0	0	0	0	0	0	0	

average position of mrq chosen = -nan
Memory Partition 0: 
Cache L2_bank_000:
MSHR contents

Cache L2_bank_001:
MSHR contents

In Dram Latency Queue (total = 0): 
DRAM[0]: 16 bks, busW=2 BL=16 CL=24, tRRD=12 tCCD=4, tRCD=24 tRAS=55 tRP=24 tRC=78
n_cmd=88820190 n_nop=87747593 n_act=341661 n_pre=341645 n_ref_event=0 n_req=439410 n_rd=426485 n_rd_L2_A=0 n_write=0 n_wr_bk=21708 bw_util=0.02018
n_activity=13887924 dram_eff=0.1291
bk0: 26596a 86927136i bk1: 27884a 86804295i bk2: 27350a 86838281i bk3: 28850a 86731390i bk4: 26195a 86941934i bk5: 27527a 86825213i bk6: 25725a 86970375i bk7: 26954a 86883916i bk8: 26103a 86972123i bk9: 27712a 86845680i bk10: 26501a 86960715i bk11: 27630a 86857200i bk12: 24242a 87164715i bk13: 25690a 87042277i bk14: 25085a 87092535i bk15: 26441a 86958265i 

------------------------------------------------------------------------

Row_Buffer_Locality = 0.222480
Row_Buffer_Locality_read = 0.225600
Row_Buffer_Locality_write = 0.119536
Bank_Level_Parallism = 3.161507
Bank_Level_Parallism_Col = 1.000000
Bank_Level_Parallism_Ready = 1.064424
write_to_read_ratio_blp_rw_average = 0.000000
GrpLevelPara = 0.000000 

BW Util details:
bwutil = 0.020184 
total_CMD = 88820190 
util_bw = 1792772 
Wasted_Col = 5207047 
Wasted_Row = 3032475 
Idle = 78787896 

BW Util Bottlenecks: 
RCDc_limit = 6400635 
RCDWRc_limit = 111315 
WTRc_limit = 414932 
RTWc_limit = 632753 
CCDLc_limit = 259294 
rwq = 0 
CCDLc_limit_alone = 211565 
WTRc_limit_alone = 401355 
RTWc_limit_alone = 598601 

Commands details: 
total_CMD = 88820190 
n_nop = 87747593 
Read = 426485 
Write = 0 
L2_Alloc = 0 
L2_WB = 21708 
n_act = 341661 
n_pre = 341645 
n_ref = 0 
n_req = 439410 
total_req = 448193 

Dual Bus Interface Util: 
issued_total_row = 683306 
issued_total_col = 448193 
Row_Bus_Util =  0.007693 
CoL_Bus_Util = 0.005046 
Either_Row_CoL_Bus_Util = 0.012076 
Issued_on_Two_Bus_Simul_Util = 0.000663 
issued_two_Eff = 0.054915 
queue_avg = 0.877807 


dram_util_bins: 0 0 0 0 0 0 0 0 0 0
dram_eff_bins: 0 0 0 0 0 0 0 0 0 0
mrqq: max=64 avg=0.877807
Memory Partition 1: 
Cache L2_bank_002:
MSHR contents

Cache L2_bank_003:
MSHR contents

In Dram Latency Queue (total = 0): 
DRAM[1]: 16 bks, busW=2 BL=16 CL=24, tRRD=12 tCCD=4, tRCD=24 tRAS=55 tRP=24 tRC=78
n_cmd=88820190 n_nop=87735905 n_act=346700 n_pre=346684 n_ref_event=0 n_req=446352 n_rd=433059 n_rd_L2_A=0 n_write=0 n_wr_bk=21917 bw_util=0.02049
n_activity=13863710 dram_eff=0.1313
bk0: 28674a 86720436i bk1: 27304a 86860539i bk2: 29250a 86632632i bk3: 28069a 86750699i bk4: 27530a 86744164i bk5: 26200a 86903167i bk6: 27094a 86818472i bk7: 25901a 86911278i bk8: 28013a 86757772i bk9: 26812a 86861086i bk10: 28435a 86730890i bk11: 26510a 86924342i bk12: 26054a 86913123i bk13: 25281a 87034813i bk14: 26722a 86885716i bk15: 25210a 87021053i 

------------------------------------------------------------------------

Row_Buffer_Locality = 0.223281
Row_Buffer_Locality_read = 0.225960
Row_Buffer_Locality_write = 0.136011
Bank_Level_Parallism = 3.307621
Bank_Level_Parallism_Col = 1.586183
Bank_Level_Parallism_Ready = 1.069632
write_to_read_ratio_blp_rw_average = 0.068720
GrpLevelPara = 1.426544 

BW Util details:
bwutil = 0.020490 
total_CMD = 88820190 
util_bw = 1819904 
Wasted_Col = 5190629 
Wasted_Row = 3004136 
Idle = 78805521 

BW Util Bottlenecks: 
RCDc_limit = 6443744 
RCDWRc_limit = 109117 
WTRc_limit = 434259 
RTWc_limit = 687332 
CCDLc_limit = 275993 
rwq = 0 
CCDLc_limit_alone = 223589 
WTRc_limit_alone = 419527 
RTWc_limit_alone = 649660 

Commands details: 
total_CMD = 88820190 
n_nop = 87735905 
Read = 433059 
Write = 0 
L2_Alloc = 0 
L2_WB = 21917 
n_act = 346700 
n_pre = 346684 
n_ref = 0 
n_req = 446352 
total_req = 454976 

Dual Bus Interface Util: 
issued_total_row = 693384 
issued_total_col = 454976 
Row_Bus_Util =  0.007807 
CoL_Bus_Util = 0.005122 
Either_Row_CoL_Bus_Util = 0.012208 
Issued_on_Two_Bus_Simul_Util = 0.000721 
issued_two_Eff = 0.059094 
queue_avg = 0.939880 


dram_util_bins: 0 0 0 0 0 0 0 0 0 0
dram_eff_bins: 0 0 0 0 0 0 0 0 0 0
mrqq: max=64 avg=0.93988
Memory Partition 2: 
Cache L2_bank_004:
MSHR contents

Cache L2_bank_005:
MSHR contents

In Dram Latency Queue (total = 0): 
DRAM[2]: 16 bks, busW=2 BL=16 CL=24, tRRD=12 tCCD=4, tRCD=24 tRAS=55 tRP=24 tRC=78
n_cmd=88820190 n_nop=87756214 n_act=338666 n_pre=338650 n_ref_event=0 n_req=434253 n_rd=421125 n_rd_L2_A=0 n_write=0 n_wr_bk=21815 bw_util=0.01995
n_activity=13847110 dram_eff=0.128
bk0: 26832a 86943722i bk1: 27294a 86902673i bk2: 27970a 86791952i bk3: 28059a 86822327i bk4: 26071a 86935300i bk5: 26145a 86954371i bk6: 25579a 87007636i bk7: 25926a 86963783i bk8: 26645a 86902353i bk9: 26705a 86902005i bk10: 26129a 86998224i bk11: 26350a 86980547i bk12: 25167a 87084174i bk13: 25207a 87079715i bk14: 25319a 87086225i bk15: 25727a 87041390i 

------------------------------------------------------------------------

Row_Buffer_Locality = 0.220141
Row_Buffer_Locality_read = 0.223430
Row_Buffer_Locality_write = 0.114640
Bank_Level_Parallism = 3.113951
Bank_Level_Parallism_Col = 1.533664
Bank_Level_Parallism_Ready = 1.062568
write_to_read_ratio_blp_rw_average = 0.064016
GrpLevelPara = 1.396994 

BW Util details:
bwutil = 0.019948 
total_CMD = 88820190 
util_bw = 1771760 
Wasted_Col = 5189194 
Wasted_Row = 3031355 
Idle = 78827881 

BW Util Bottlenecks: 
RCDc_limit = 6370585 
RCDWRc_limit = 112848 
WTRc_limit = 426757 
RTWc_limit = 593669 
CCDLc_limit = 247660 
rwq = 0 
CCDLc_limit_alone = 203369 
WTRc_limit_alone = 413057 
RTWc_limit_alone = 563078 

Commands details: 
total_CMD = 88820190 
n_nop = 87756214 
Read = 421125 
Write = 0 
L2_Alloc = 0 
L2_WB = 21815 
n_act = 338666 
n_pre = 338650 
n_ref = 0 
n_req = 434253 
total_req = 442940 

Dual Bus Interface Util: 
issued_total_row = 677316 
issued_total_col = 442940 
Row_Bus_Util =  0.007626 
CoL_Bus_Util = 0.004987 
Either_Row_CoL_Bus_Util = 0.011979 
Issued_on_Two_Bus_Simul_Util = 0.000634 
issued_two_Eff = 0.052896 
queue_avg = 0.713739 


dram_util_bins: 0 0 0 0 0 0 0 0 0 0
dram_eff_bins: 0 0 0 0 0 0 0 0 0 0
mrqq: max=64 avg=0.713739
Memory Partition 3: 
Cache L2_bank_006:
MSHR contents

Cache L2_bank_007:
MSHR contents

In Dram Latency Queue (total = 0): 
DRAM[3]: 16 bks, busW=2 BL=16 CL=24, tRRD=12 tCCD=4, tRCD=24 tRAS=55 tRP=24 tRC=78
n_cmd=88820190 n_nop=87747488 n_act=342219 n_pre=342203 n_ref_event=0 n_req=439267 n_rd=425963 n_rd_L2_A=0 n_write=0 n_wr_bk=21879 bw_util=0.02017
n_activity=13866415 dram_eff=0.1292
bk0: 27560a 86865321i bk1: 27733a 86844018i bk2: 28283a 86774311i bk3: 28078a 86785716i bk4: 26636a 86864197i bk5: 26709a 86872777i bk6: 26428a 86895942i bk7: 26534a 86884463i bk8: 26891a 86868779i bk9: 26962a 86877214i bk10: 26441a 86977622i bk11: 26333a 86967947i bk12: 25085a 87077296i bk13: 24661a 87099239i bk14: 25834a 87007863i bk15: 25795a 86984722i 

------------------------------------------------------------------------

Row_Buffer_Locality = 0.220954
Row_Buffer_Locality_read = 0.223890
Row_Buffer_Locality_write = 0.126954
Bank_Level_Parallism = 3.189307
Bank_Level_Parallism_Col = 1.561768
Bank_Level_Parallism_Ready = 1.068761
write_to_read_ratio_blp_rw_average = 0.066245
GrpLevelPara = 1.414298 

BW Util details:
bwutil = 0.020168 
total_CMD = 88820190 
util_bw = 1791368 
Wasted_Col = 5192522 
Wasted_Row = 3017855 
Idle = 78818445 

BW Util Bottlenecks: 
RCDc_limit = 6404285 
RCDWRc_limit = 110848 
WTRc_limit = 436759 
RTWc_limit = 650405 
CCDLc_limit = 255001 
rwq = 0 
CCDLc_limit_alone = 207521 
WTRc_limit_alone = 423009 
RTWc_limit_alone = 616675 

Commands details: 
total_CMD = 88820190 
n_nop = 87747488 
Read = 425963 
Write = 0 
L2_Alloc = 0 
L2_WB = 21879 
n_act = 342219 
n_pre = 342203 
n_ref = 0 
n_req = 439267 
total_req = 447842 

Dual Bus Interface Util: 
issued_total_row = 684422 
issued_total_col = 447842 
Row_Bus_Util =  0.007706 
CoL_Bus_Util = 0.005042 
Either_Row_CoL_Bus_Util = 0.012077 
Issued_on_Two_Bus_Simul_Util = 0.000671 
issued_two_Eff = 0.055525 
queue_avg = 0.796326 


dram_util_bins: 0 0 0 0 0 0 0 0 0 0
dram_eff_bins: 0 0 0 0 0 0 0 0 0 0
mrqq: max=64 avg=0.796326
Memory Partition 4: 
Cache L2_bank_008:
MSHR contents

Cache L2_bank_009:
MSHR contents

In Dram Latency Queue (total = 0): 
DRAM[4]: 16 bks, busW=2 BL=16 CL=24, tRRD=12 tCCD=4, tRCD=24 tRAS=55 tRP=24 tRC=78
n_cmd=88820190 n_nop=87738574 n_act=345332 n_pre=345316 n_ref_event=0 n_req=442159 n_rd=428742 n_rd_L2_A=0 n_write=0 n_wr_bk=22008 bw_util=0.0203
n_activity=13849572 dram_eff=0.1302
bk0: 27950a 86810358i bk1: 27948a 86788294i bk2: 28301a 86754166i bk3: 28674a 86758616i bk4: 26643a 86892941i bk5: 27070a 86849510i bk6: 26220a 86917962i bk7: 26550a 86906546i bk8: 27281a 86865679i bk9: 26946a 86896095i bk10: 26838a 86964756i bk11: 26828a 86936268i bk12: 25116a 87072515i bk13: 25065a 87078098i bk14: 25668a 87023355i bk15: 25644a 87009202i 

------------------------------------------------------------------------

Row_Buffer_Locality = 0.219009
Row_Buffer_Locality_read = 0.221954
Row_Buffer_Locality_write = 0.124916
Bank_Level_Parallism = 3.199273
Bank_Level_Parallism_Col = 1.569861
Bank_Level_Parallism_Ready = 1.068141
write_to_read_ratio_blp_rw_average = 0.067293
GrpLevelPara = 1.419880 

BW Util details:
bwutil = 0.020299 
total_CMD = 88820190 
util_bw = 1803000 
Wasted_Col = 5209686 
Wasted_Row = 2994715 
Idle = 78812789 

BW Util Bottlenecks: 
RCDc_limit = 6448123 
RCDWRc_limit = 112805 
WTRc_limit = 441943 
RTWc_limit = 665357 
CCDLc_limit = 260576 
rwq = 0 
CCDLc_limit_alone = 210933 
WTRc_limit_alone = 427825 
RTWc_limit_alone = 629832 

Commands details: 
total_CMD = 88820190 
n_nop = 87738574 
Read = 428742 
Write = 0 
L2_Alloc = 0 
L2_WB = 22008 
n_act = 345332 
n_pre = 345316 
n_ref = 0 
n_req = 442159 
total_req = 450750 

Dual Bus Interface Util: 
issued_total_row = 690648 
issued_total_col = 450750 
Row_Bus_Util =  0.007776 
CoL_Bus_Util = 0.005075 
Either_Row_CoL_Bus_Util = 0.012178 
Issued_on_Two_Bus_Simul_Util = 0.000673 
issued_two_Eff = 0.055271 
queue_avg = 0.803994 


dram_util_bins: 0 0 0 0 0 0 0 0 0 0
dram_eff_bins: 0 0 0 0 0 0 0 0 0 0
mrqq: max=64 avg=0.803994
Memory Partition 5: 
Cache L2_bank_010:
MSHR contents

Cache L2_bank_011:
MSHR contents

In Dram Latency Queue (total = 0): 
DRAM[5]: 16 bks, busW=2 BL=16 CL=24, tRRD=12 tCCD=4, tRCD=24 tRAS=55 tRP=24 tRC=78
n_cmd=88820190 n_nop=87751331 n_act=340741 n_pre=340725 n_ref_event=0 n_req=436523 n_rd=423114 n_rd_L2_A=0 n_write=0 n_wr_bk=22018 bw_util=0.02005
n_activity=13868064 dram_eff=0.1284
bk0: 27489a 86848516i bk1: 26926a 86878380i bk2: 27756a 86827321i bk3: 28002a 86813471i bk4: 26657a 86916065i bk5: 26730a 86896381i bk6: 26255a 86909169i bk7: 26002a 86933385i bk8: 26766a 86905337i bk9: 26561a 86927511i bk10: 26612a 86939558i bk11: 26975a 86921439i bk12: 24554a 87130647i bk13: 24763a 87116387i bk14: 25554a 87018211i bk15: 25512a 86997693i 

------------------------------------------------------------------------

Row_Buffer_Locality = 0.219443
Row_Buffer_Locality_read = 0.222727
Row_Buffer_Locality_write = 0.115818
Bank_Level_Parallism = 3.150815
Bank_Level_Parallism_Col = 1.539066
Bank_Level_Parallism_Ready = 1.066089
write_to_read_ratio_blp_rw_average = 0.063626
GrpLevelPara = 1.400419 

BW Util details:
bwutil = 0.020046 
total_CMD = 88820190 
util_bw = 1780528 
Wasted_Col = 5204552 
Wasted_Row = 3026406 
Idle = 78808704 

BW Util Bottlenecks: 
RCDc_limit = 6397335 
RCDWRc_limit = 114642 
WTRc_limit = 437484 
RTWc_limit = 598754 
CCDLc_limit = 248812 
rwq = 0 
CCDLc_limit_alone = 204270 
WTRc_limit_alone = 423421 
RTWc_limit_alone = 568275 

Commands details: 
total_CMD = 88820190 
n_nop = 87751331 
Read = 423114 
Write = 0 
L2_Alloc = 0 
L2_WB = 22018 
n_act = 340741 
n_pre = 340725 
n_ref = 0 
n_req = 436523 
total_req = 445132 

Dual Bus Interface Util: 
issued_total_row = 681466 
issued_total_col = 445132 
Row_Bus_Util =  0.007672 
CoL_Bus_Util = 0.005012 
Either_Row_CoL_Bus_Util = 0.012034 
Issued_on_Two_Bus_Simul_Util = 0.000650 
issued_two_Eff = 0.054019 
queue_avg = 0.740049 


dram_util_bins: 0 0 0 0 0 0 0 0 0 0
dram_eff_bins: 0 0 0 0 0 0 0 0 0 0
mrqq: max=64 avg=0.740049
Memory Partition 6: 
Cache L2_bank_012:
MSHR contents

Cache L2_bank_013:
MSHR contents

In Dram Latency Queue (total = 0): 
DRAM[6]: 16 bks, busW=2 BL=16 CL=24, tRRD=12 tCCD=4, tRCD=24 tRAS=55 tRP=24 tRC=78
n_cmd=88820190 n_nop=87748100 n_act=342250 n_pre=342234 n_ref_event=0 n_req=436992 n_rd=423636 n_rd_L2_A=0 n_write=0 n_wr_bk=22063 bw_util=0.02007
[...]
Wasted_Row = 7616711 
Idle = 172506691 

BW Util Bottlenecks: 
RCDc_limit = 18888116 
RCDWRc_limit = 118122 
WTRc_limit = 488702 
RTWc_limit = 626914 
CCDLc_limit = 714187 
rwq = 0 
CCDLc_limit_alone = 665939 
WTRc_limit_alone = 471871 
RTWc_limit_alone = 595497 

Commands details: 
total_CMD = 199793631 
n_nop = 196713198 
Read = 1266029 
Write = 0 
L2_Alloc = 0 
L2_WB = 26863 
n_act = 1000415 
n_pre = 1000399 
n_ref = 0 
n_req = 1280589 
total_req = 1292892 

Dual Bus Interface Util: 
issued_total_row = 2000814 
issued_total_col = 1292892 
Row_Bus_Util =  0.010014 
CoL_Bus_Util = 0.006471 
Either_Row_CoL_Bus_Util = 0.015418 
Issued_on_Two_Bus_Simul_Util = 0.001067 
issued_two_Eff = 0.069235 
queue_avg = 0.920701 


dram_util_bins: 0 0 0 0 0 0 0 0 0 0
dram_eff_bins: 0 0 0 0 0 0 0 0 0 0
mrqq: max=64 avg=0.920701
Memory Partition 7: 
Cache L2_bank_014:
MSHR contents

Cache L2_bank_015:
MSHR contents

In Dram Latency Queue (total = 0): 
DRAM[7]: 16 bks, busW=2 BL=16 CL=24, tRRD=12 tCCD=4, tRCD=24 tRAS=55 tRP=24 tRC=78
n_cmd=199793631 n_nop=196717337 n_act=998535 n_pre=998519 n_ref_event=0 n_req=1281659 n_rd=1267087 n_rd_L2_A=0 n_write=0 n_wr_bk=26811 bw_util=0.0259
n_activity=35874252 dram_eff=0.1443
bk0: 83600a 193900984i bk1: 82997a 193948060i bk2: 84258a 193782371i bk3: 83740a 193855036i bk4: 78890a 194112776i bk5: 78471a 194184117i bk6: 78226a 194214597i bk7: 76991a 194271792i bk8: 80623a 194132514i bk9: 80585a 194064648i bk10: 78907a 194302876i bk11: 79136a 194267479i bk12: 74024a 194656972i bk13: 74387a 194672027i bk14: 76448a 194380810i bk15: 75804a 194456331i 

------------------------------------------------------------------------

Row_Buffer_Locality = 0.220912
Row_Buffer_Locality_read = 0.221838
Row_Buffer_Locality_write = 0.140406
Bank_Level_Parallism = 3.422220
Bank_Level_Parallism_Col = 1.493964
Bank_Level_Parallism_Ready = 1.044029
write_to_read_ratio_blp_rw_average = 0.024892
GrpLevelPara = 1.381722 

BW Util details:
bwutil = 0.025905 
total_CMD = 199793631 
util_bw = 5175592 
Wasted_Col = 14466036 
Wasted_Row = 7605261 
Idle = 172546742 

BW Util Bottlenecks: 
RCDc_limit = 18833092 
RCDWRc_limit = 115375 
WTRc_limit = 481007 
RTWc_limit = 688211 
CCDLc_limit = 721557 
rwq = 0 
CCDLc_limit_alone = 668339 
WTRc_limit_alone = 463902 
RTWc_limit_alone = 652098 

Commands details: 
total_CMD = 199793631 
n_nop = 196717337 
Read = 1267087 
Write = 0 
L2_Alloc = 0 
L2_WB = 26811 
n_act = 998535 
n_pre = 998519 
n_ref = 0 
n_req = 1281659 
total_req = 1293898 

Dual Bus Interface Util: 
issued_total_row = 1997054 
issued_total_col = 1293898 
Row_Bus_Util =  0.009996 
CoL_Bus_Util = 0.006476 
Either_Row_CoL_Bus_Util = 0.015397 
Issued_on_Two_Bus_Simul_Util = 0.001074 
issued_two_Eff = 0.069778 
queue_avg = 1.034254 


dram_util_bins: 0 0 0 0 0 0 0 0 0 0
dram_eff_bins: 0 0 0 0 0 0 0 0 0 0
mrqq: max=64 avg=1.03425
Memory Partition 8: 
Cache L2_bank_016:
MSHR contents

Cache L2_bank_017:
MSHR contents

In Dram Latency Queue (total = 0): 
DRAM[8]: 16 bks, busW=2 BL=16 CL=24, tRRD=12 tCCD=4, tRCD=24 tRAS=55 tRP=24 tRC=78
n_cmd=199793631 n_nop=196719223 n_act=997607 n_pre=997591 n_ref_event=0 n_req=1276640 n_rd=1262126 n_rd_L2_A=0 n_write=0 n_wr_bk=26674 bw_util=0.0258
n_activity=35893732 dram_eff=0.1436
bk0: 81509a 194107650i bk1: 81372a 194124935i bk2: 83212a 193924229i bk3: 83248a 193983037i bk4: 78726a 194261365i bk5: 78737a 194263020i bk6: 77147a 194316755i bk7: 77053a 194358540i bk8: 80765a 194144632i bk9: 80875a 194140883i bk10: 79480a 194327502i bk11: 79801a 194311322i bk12: 75139a 194652953i bk13: 74460a 194740152i bk14: 75071a 194668172i bk15: 75531a 194576286i 

------------------------------------------------------------------------

Row_Buffer_Locality = 0.218576
Row_Buffer_Locality_read = 0.219648
Row_Buffer_Locality_write = 0.125396
Bank_Level_Parallism = 3.355050
Bank_Level_Parallism_Col = 1.481352
Bank_Level_Parallism_Ready = 1.040890
write_to_read_ratio_blp_rw_average = 0.023329
GrpLevelPara = 1.374390 

BW Util details:
bwutil = 0.025803 
total_CMD = 199793631 
util_bw = 5155200 
Wasted_Col = 14489669 
Wasted_Row = 7616959 
Idle = 172531803 

BW Util Bottlenecks: 
RCDc_limit = 18853795 
RCDWRc_limit = 118468 
WTRc_limit = 488489 
RTWc_limit = 605642 
CCDLc_limit = 709613 
rwq = 0 
CCDLc_limit_alone = 661219 
WTRc_limit_alone = 470901 
RTWc_limit_alone = 574836 

Commands details: 
total_CMD = 199793631 
n_nop = 196719223 
Read = 1262126 
Write = 0 
L2_Alloc = 0 
L2_WB = 26674 
n_act = 997607 
n_pre = 997591 
n_ref = 0 
n_req = 1276640 
total_req = 1288800 

Dual Bus Interface Util: 
issued_total_row = 1995198 
issued_total_col = 1288800 
Row_Bus_Util =  0.009986 
CoL_Bus_Util = 0.006451 
Either_Row_CoL_Bus_Util = 0.015388 
Issued_on_Two_Bus_Simul_Util = 0.001049 
issued_two_Eff = 0.068172 
queue_avg = 0.905560 


dram_util_bins: 0 0 0 0 0 0 0 0 0 0
dram_eff_bins: 0 0 0 0 0 0 0 0 0 0
mrqq: max=64 avg=0.90556
Memory Partition 9: 
Cache L2_bank_018:
MSHR contents

Cache L2_bank_019:
MSHR contents

In Dram Latency Queue (total = 0): 
DRAM[9]: 16 bks, busW=2 BL=16 CL=24, tRRD=12 tCCD=4, tRCD=24 tRAS=55 tRP=24 tRC=78
n_cmd=199793631 n_nop=196732256 n_act=991884 n_pre=991868 n_ref_event=0 n_req=1269941 n_rd=1255365 n_rd_L2_A=0 n_write=0 n_wr_bk=26839 bw_util=0.02567
n_activity=35934571 dram_eff=0.1427
bk0: 80806a 194290526i bk1: 80512a 194268404i bk2: 83611a 193974027i bk3: 84061a 193942573i bk4: 78657a 194342947i bk5: 79484a 194262088i bk6: 76385a 194503152i bk7: 76182a 194551740i bk8: 80375a 194263078i bk9: 80154a 194263402i bk10: 78415a 194538040i bk11: 77937a 194537216i bk12: 73339a 194857657i bk13: 73137a 194895156i bk14: 76176a 194631941i bk15: 76134a 194607989i 

------------------------------------------------------------------------

Row_Buffer_Locality = 0.218961
Row_Buffer_Locality_read = 0.219987
Row_Buffer_Locality_write = 0.130557
Bank_Level_Parallism = 3.284071
Bank_Level_Parallism_Col = 1.474846
Bank_Level_Parallism_Ready = 1.040741
write_to_read_ratio_blp_rw_average = 0.023318
GrpLevelPara = 1.369115 

BW Util details:
bwutil = 0.025671 
total_CMD = 199793631 
util_bw = 5128816 
Wasted_Col = 14490058 
Wasted_Row = 7655514 
Idle = 172519243 

BW Util Bottlenecks: 
RCDc_limit = 18806619 
RCDWRc_limit = 118885 
WTRc_limit = 482789 
RTWc_limit = 601144 
CCDLc_limit = 702645 
rwq = 0 
CCDLc_limit_alone = 655496 
WTRc_limit_alone = 466131 
RTWc_limit_alone = 570653 

Commands details: 
total_CMD = 199793631 
n_nop = 196732256 
Read = 1255365 
Write = 0 
L2_Alloc = 0 
L2_WB = 26839 
n_act = 991884 
n_pre = 991868 
n_ref = 0 
n_req = 1269941 
total_req = 1282204 

Dual Bus Interface Util: 
issued_total_row = 1983752 
issued_total_col = 1282204 
Row_Bus_Util =  0.009929 
CoL_Bus_Util = 0.006418 
Either_Row_CoL_Bus_Util = 0.015323 
Issued_on_Two_Bus_Simul_Util = 0.001024 
issued_two_Eff = 0.066827 
queue_avg = 0.860841 


dram_util_bins: 0 0 0 0 0 0 0 0 0 0
dram_eff_bins: 0 0 0 0 0 0 0 0 0 0
mrqq: max=64 avg=0.860841
Memory Partition 10: 
Cache L2_bank_020:
MSHR contents

Cache L2_bank_021:
MSHR contents

In Dram Latency Queue (total = 0): 
DRAM[10]: 16 bks, busW=2 BL=16 CL=24, tRRD=12 tCCD=4, tRCD=24 tRAS=55 tRP=24 tRC=78
n_cmd=199793631 n_nop=196756336 n_act=985603 n_pre=985587 n_ref_event=0 n_req=1255205 n_rd=1240584 n_rd_L2_A=0 n_write=0 n_wr_bk=26996 bw_util=0.02538
n_activity=35833150 dram_eff=0.1415
bk0: 80055a 194300531i bk1: 79940a 194277384i bk2: 83093a 194005837i bk3: 81936a 194168396i bk4: 79271a 194225690i bk5: 77683a 194379372i bk6: 76036a 194526586i bk7: 74504a 194641574i bk8: 78494a 194370323i bk9: 76741a 194505233i bk10: 78466a 194439933i bk11: 77669a 194532820i bk12: 73710a 194803083i bk13: 72348a 194935151i bk14: 76048a 194615920i bk15: 74590a 194746459i 

------------------------------------------------------------------------

Row_Buffer_Locality = 0.214795
Row_Buffer_Locality_read = 0.215827
Row_Buffer_Locality_write = 0.127283
Bank_Level_Parallism = 3.268669
Bank_Level_Parallism_Col = 1.469732
Bank_Level_Parallism_Ready = 1.041120
write_to_read_ratio_blp_rw_average = 0.022761
GrpLevelPara = 1.365078 

BW Util details:
bwutil = 0.025378 
total_CMD = 199793631 
util_bw = 5070320 
Wasted_Col = 14446409 
Wasted_Row = 7650591 
Idle = 172626311 

BW Util Bottlenecks: 
RCDc_limit = 18750449 
RCDWRc_limit = 119537 
WTRc_limit = 496175 
RTWc_limit = 578856 
CCDLc_limit = 679804 
rwq = 0 
CCDLc_limit_alone = 633420 
WTRc_limit_alone = 478427 
RTWc_limit_alone = 550220 

Commands details: 
total_CMD = 199793631 
n_nop = 196756336 
Read = 1240584 
Write = 0 
L2_Alloc = 0 
L2_WB = 26996 
n_act = 985603 
n_pre = 985587 
n_ref = 0 
n_req = 1255205 
total_req = 1267580 

Dual Bus Interface Util: 
issued_total_row = 1971190 
issued_total_col = 1267580 
Row_Bus_Util =  0.009866 
CoL_Bus_Util = 0.006344 
Either_Row_CoL_Bus_Util = 0.015202 
Issued_on_Two_Bus_Simul_Util = 0.001008 
issued_two_Eff = 0.066334 
queue_avg = 0.799680 


dram_util_bins: 0 0 0 0 0 0 0 0 0 0
dram_eff_bins: 0 0 0 0 0 0 0 0 0 0
mrqq: max=64 avg=0.79968
Memory Partition 11: 
Cache L2_bank_022:
MSHR contents

Cache L2_bank_023:
MSHR contents

In Dram Latency Queue (total = 0): 
DRAM[11]: 16 bks, busW=2 BL=16 CL=24, tRRD=12 tCCD=4, tRCD=24 tRAS=55 tRP=24 tRC=78
n_cmd=199793631 n_nop=196762720 n_act=980038 n_pre=980022 n_ref_event=0 n_req=1251461 n_rd=1237047 n_rd_L2_A=0 n_write=0 n_wr_bk=26832 bw_util=0.0253
n_activity=35823712 dram_eff=0.1411
bk0: 80338a 194391603i bk1: 81172a 194348307i bk2: 81597a 194294570i bk3: 81742a 194260283i bk4: 78178a 194476953i bk5: 78106a 194500980i bk6: 74682a 194736481i bk7: 76465a 194630275i bk8: 76279a 194682839i bk9: 78142a 194565024i bk10: 77309a 194669881i bk11: 77244a 194683635i bk12: 72837a 195011821i bk13: 73285a 195019019i bk14: 74696a 194823049i bk15: 74975a 194811832i 

------------------------------------------------------------------------

Row_Buffer_Locality = 0.216893
Row_Buffer_Locality_read = 0.217985
Row_Buffer_Locality_write = 0.123144
Bank_Level_Parallism = 3.177155
Bank_Level_Parallism_Col = 1.463296
Bank_Level_Parallism_Ready = 1.041220
write_to_read_ratio_blp_rw_average = 0.022624
GrpLevelPara = 1.359690 

BW Util details:
bwutil = 0.025304 
total_CMD = 199793631 
util_bw = 5055516 
Wasted_Col = 14437054 
Wasted_Row = 7662522 
Idle = 172638539 

BW Util Bottlenecks: 
RCDc_limit = 18677758 
RCDWRc_limit = 119116 
WTRc_limit = 473270 
RTWc_limit = 560595 
CCDLc_limit = 676333 
rwq = 0 
CCDLc_limit_alone = 631315 
WTRc_limit_alone = 456397 
RTWc_limit_alone = 532450 

Commands details: 
total_CMD = 199793631 
n_nop = 196762720 
Read = 1237047 
Write = 0 
L2_Alloc = 0 
L2_WB = 26832 
n_act = 980038 
n_pre = 980022 
n_ref = 0 
n_req = 1251461 
total_req = 1263879 

Dual Bus Interface Util: 
issued_total_row = 1960060 
issued_total_col = 1263879 
Row_Bus_Util =  0.009810 
CoL_Bus_Util = 0.006326 
Either_Row_CoL_Bus_Util = 0.015170 
Issued_on_Two_Bus_Simul_Util = 0.000966 
issued_two_Eff = 0.063686 
queue_avg = 0.745936 


dram_util_bins: 0 0 0 0 0 0 0 0 0 0
dram_eff_bins: 0 0 0 0 0 0 0 0 0 0
mrqq: max=64 avg=0.745936

========= L2 cache stats =========
L2_cache_bank[0]: Access = 4223413, Miss = 623041, Miss_rate = 0.148, Pending_hits = 1132, Reservation_fails = 2387
L2_cache_bank[1]: Access = 4165243, Miss = 651481, Miss_rate = 0.156, Pending_hits = 1288, Reservation_fails = 2069
L2_cache_bank[2]: Access = 4329858, Miss = 658025, Miss_rate = 0.152, Pending_hits = 1730, Reservation_fails = 2481
L2_cache_bank[3]: Access = 4292252, Miss = 633443, Miss_rate = 0.148, Pending_hits = 898, Reservation_fails = 2582
L2_cache_bank[4]: Access = 4231344, Miss = 627774, Miss_rate = 0.148, Pending_hits = 766, Reservation_fails = 1247
L2_cache_bank[5]: Access = 4318659, Miss = 633370, Miss_rate = 0.147, Pending_hits = 689, Reservation_fails = 2285
L2_cache_bank[6]: Access = 4257130, Miss = 642238, Miss_rate = 0.151, Pending_hits = 1103, Reservation_fails = 1588
L2_cache_bank[7]: Access = 4239050, Miss = 634198, Miss_rate = 0.150, Pending_hits = 996, Reservation_fails = 19
L2_cache_bank[8]: Access = 4208720, Miss = 641517, Miss_rate = 0.152, Pending_hits = 1430, Reservation_fails = 13623
L2_cache_bank[9]: Access = 4120541, Miss = 658985, Miss_rate = 0.160, Pending_hits = 1997, Reservation_fails = 1183
L2_cache_bank[10]: Access = 4290481, Miss = 627305, Miss_rate = 0.146, Pending_hits = 812, Reservation_fails = 0
L2_cache_bank[11]: Access = 4250118, Miss = 629953, Miss_rate = 0.148, Pending_hits = 770, Reservation_fails = 2588
L2_cache_bank[12]: Access = 4401931, Miss = 631851, Miss_rate = 0.144, Pending_hits = 739, Reservation_fails = 171
L2_cache_bank[13]: Access = 4292522, Miss = 634570, Miss_rate = 0.148, Pending_hits = 705, Reservation_fails = 0
L2_cache_bank[14]: Access = 4339585, Miss = 635159, Miss_rate = 0.146, Pending_hits = 930, Reservation_fails = 887
L2_cache_bank[15]: Access = 4463444, Miss = 632315, Miss_rate = 0.142, Pending_hits = 968, Reservation_fails = 1448
L2_cache_bank[16]: Access = 4289937, Miss = 631281, Miss_rate = 0.147, Pending_hits = 1063, Reservation_fails = 2350
L2_cache_bank[17]: Access = 4301283, Miss = 631252, Miss_rate = 0.147, Pending_hits = 745, Reservation_fails = 231
L2_cache_bank[18]: Access = 4708432, Miss = 627981, Miss_rate = 0.133, Pending_hits = 767, Reservation_fails = 1206
L2_cache_bank[19]: Access = 4293973, Miss = 627810, Miss_rate = 0.146, Pending_hits = 750, Reservation_fails = 586
L2_cache_bank[20]: Access = 4348095, Miss = 625344, Miss_rate = 0.144, Pending_hits = 808, Reservation_fails = 308
L2_cache_bank[21]: Access = 4144755, Miss = 615636, Miss_rate = 0.149, Pending_hits = 729, Reservation_fails = 68
L2_cache_bank[22]: Access = 4197435, Miss = 616109, Miss_rate = 0.147, Pending_hits = 727, Reservation_fails = 1344
L2_cache_bank[23]: Access = 4228298, Miss = 621345, Miss_rate = 0.147, Pending_hits = 691, Reservation_fails = 2557
L2_total_cache_accesses = 102936499
L2_total_cache_misses = 15191983
L2_total_cache_miss_rate = 0.1476
L2_total_cache_pending_hits = 23233
L2_total_cache_reservation_fails = 43208
L2_total_cache_breakdown:
	L2_cache_stats_breakdown[GLOBAL_ACC_R][HIT] = 86925113
	L2_cache_stats_breakdown[GLOBAL_ACC_R][HIT_RESERVED] = 23160
	L2_cache_stats_breakdown[GLOBAL_ACC_R][MISS] = 7033468
	L2_cache_stats_breakdown[GLOBAL_ACC_R][RESERVATION_FAIL] = 43208
	L2_cache_stats_breakdown[GLOBAL_ACC_R][SECTOR_MISS] = 8153401
	L2_cache_stats_breakdown[GLOBAL_ACC_R][MSHR_HIT] = 23164
	L2_cache_stats_breakdown[LOCAL_ACC_R][HIT] = 0
	L2_cache_stats_breakdown[LOCAL_ACC_R][HIT_RESERVED] = 0
	L2_cache_stats_breakdown[LOCAL_ACC_R][MISS] = 0
	L2_cache_stats_breakdown[LOCAL_ACC_R][RESERVATION_FAIL] = 0
	L2_cache_stats_breakdown[LOCAL_ACC_R][SECTOR_MISS] = 0
	L2_cache_stats_breakdown[LOCAL_ACC_R][MSHR_HIT] = 0
	L2_cache_stats_breakdown[CONST_ACC_R][HIT] = 0
	L2_cache_stats_breakdown[CONST_ACC_R][HIT_RESERVED] = 0
	L2_cache_stats_breakdown[CONST_ACC_R][MISS] = 0
	L2_cache_stats_breakdown[CONST_ACC_R][RESERVATION_FAIL] = 0
	L2_cache_stats_breakdown[CONST_ACC_R][SECTOR_MISS] = 0
	L2_cache_stats_breakdown[CONST_ACC_R][MSHR_HIT] = 0
	L2_cache_stats_breakdown[TEXTURE_ACC_R][HIT] = 0
	L2_cache_stats_breakdown[TEXTURE_ACC_R][HIT_RESERVED] = 0
	L2_cache_stats_breakdown[TEXTURE_ACC_R][MISS] = 0
	L2_cache_stats_breakdown[TEXTURE_ACC_R][RESERVATION_FAIL] = 0
	L2_cache_stats_breakdown[TEXTURE_ACC_R][SECTOR_MISS] = 0
	L2_cache_stats_breakdown[TEXTURE_ACC_R][MSHR_HIT] = 0
	L2_cache_stats_breakdown[GLOBAL_ACC_W][HIT] = 796170
	L2_cache_stats_breakdown[GLOBAL_ACC_W][HIT_RESERVED] = 73
	L2_cache_stats_breakdown[GLOBAL_ACC_W][MISS] = 3247
	L2_cache_stats_breakdown[GLOBAL_ACC_W][RESERVATION_FAIL] = 0
	L2_cache_stats_breakdown[GLOBAL_ACC_W][SECTOR_MISS] = 1867
	L2_cache_stats_breakdown[GLOBAL_ACC_W][MSHR_HIT] = 0
	L2_cache_stats_breakdown[LOCAL_ACC_W][HIT] = 0
	L2_cache_stats_breakdown[LOCAL_ACC_W][HIT_RESERVED] = 0
	L2_cache_stats_breakdown[LOCAL_ACC_W][MISS] = 0
	L2_cache_stats_breakdown[LOCAL_ACC_W][RESERVATION_FAIL] = 0
	L2_cache_stats_breakdown[LOCAL_ACC_W][SECTOR_MISS] = 0
	L2_cache_stats_breakdown[LOCAL_ACC_W][MSHR_HIT] = 0
	L2_cache_stats_breakdown[L1_WRBK_ACC][HIT] = 0
	L2_cache_stats_breakdown[L1_WRBK_ACC][HIT_RESERVED] = 0
	L2_cache_stats_breakdown[L1_WRBK_ACC][MISS] = 0
	L2_cache_stats_breakdown[L1_WRBK_ACC][RESERVATION_FAIL] = 0
	L2_cache_stats_breakdown[L1_WRBK_ACC][SECTOR_MISS] = 0
	L2_cache_stats_breakdown[L1_WRBK_ACC][MSHR_HIT] = 0
	L2_cache_stats_breakdown[L2_WRBK_ACC][HIT] = 0
	L2_cache_stats_breakdown[L2_WRBK_ACC][HIT_RESERVED] = 0
	L2_cache_stats_breakdown[L2_WRBK_ACC][MISS] = 0
	L2_cache_stats_breakdown[L2_WRBK_ACC][RESERVATION_FAIL] = 0
	L2_cache_stats_breakdown[L2_WRBK_ACC][SECTOR_MISS] = 0
	L2_cache_stats_breakdown[L2_WRBK_ACC][MSHR_HIT] = 0
	L2_cache_stats_breakdown[INST_ACC_R][HIT] = 0
	L2_cache_stats_breakdown[INST_ACC_R][HIT_RESERVED] = 0
	L2_cache_stats_breakdown[INST_ACC_R][MISS] = 0
	L2_cache_stats_breakdown[INST_ACC_R][RESERVATION_FAIL] = 0
	L2_cache_stats_breakdown[INST_ACC_R][SECTOR_MISS] = 0
	L2_cache_stats_breakdown[INST_ACC_R][MSHR_HIT] = 0
	L2_cache_stats_breakdown[L1_WR_ALLOC_R][HIT] = 0
	L2_cache_stats_breakdown[L1_WR_ALLOC_R][HIT_RESERVED] = 0
	L2_cache_stats_breakdown[L1_WR_ALLOC_R][MISS] = 0
	L2_cache_stats_breakdown[L1_WR_ALLOC_R][RESERVATION_FAIL] = 0
	L2_cache_stats_breakdown[L1_WR_ALLOC_R][SECTOR_MISS] = 0
	L2_cache_stats_breakdown[L1_WR_ALLOC_R][MSHR_HIT] = 0
	L2_cache_stats_breakdown[L2_WR_ALLOC_R][HIT] = 0
	L2_cache_stats_breakdown[L2_WR_ALLOC_R][HIT_RESERVED] = 0
	L2_cache_stats_breakdown[L2_WR_ALLOC_R][MISS] = 0
	L2_cache_stats_breakdown[L2_WR_ALLOC_R][RESERVATION_FAIL] = 0
	L2_cache_stats_breakdown[L2_WR_ALLOC_R][SECTOR_MISS] = 0
	L2_cache_stats_breakdown[L2_WR_ALLOC_R][MSHR_HIT] = 0
	L2_cache_stats_breakdown[GLOBAL_ACC_R][TOTAL_ACCESS] = 102135142
	L2_cache_stats_breakdown[GLOBAL_ACC_W][TOTAL_ACCESS] = 801357
L2_total_cache_reservation_fail_breakdown:
	L2_cache_stats_fail_breakdown[GLOBAL_ACC_R][LINE_ALLOC_FAIL] = 460
	L2_cache_stats_fail_breakdown[GLOBAL_ACC_R][MSHR_ENRTY_FAIL] = 19277
	L2_cache_stats_fail_breakdown[GLOBAL_ACC_R][MSHR_MERGE_ENRTY_FAIL] = 23471
L2_cache_data_port_util = 0.047
L2_cache_fill_port_util = 0.008

icnt_total_pkts_mem_to_simt=102936499
icnt_total_pkts_simt_to_mem=102936499
LD_mem_lat_dist  0 0 0 0 0 0 0 0 0 0 0 0 0 0 0 0 0 0 0 0 0 0 0 0 0 0 0
ST_mem_lat_dist  0 0 0 0 0 0 0 0 0 0 0 0 0 0 0 0 0 0 0 0 0 0 0 0 0 0 0
----------------------------Interconnect-DETAILS--------------------------------
Req_Network_injected_packets_num = 102936499
Req_Network_cycles = 77908391
Req_Network_injected_packets_per_cycle =       1.3213 
Req_Network_conflicts_per_cycle =       0.6447
Req_Network_conflicts_per_cycle_util =       2.6235
Req_Bank_Level_Parallism =       5.3764
Req_Network_in_buffer_full_per_cycle =       0.0000
Req_Network_in_buffer_avg_util =       2.1632
Req_Network_out_buffer_full_per_cycle =       0.0109
Req_Network_out_buffer_avg_util =       0.7975

Reply_Network_injected_packets_num = 102936499
Reply_Network_cycles = 77908391
Reply_Network_injected_packets_per_cycle =        1.3213
Reply_Network_conflicts_per_cycle =        1.1207
Reply_Network_conflicts_per_cycle_util =       4.5607
Reply_Bank_Level_Parallism =       5.3767
Reply_Network_in_buffer_full_per_cycle =       0.0000
Reply_Network_in_buffer_avg_util =       0.2530
Reply_Network_out_buffer_full_per_cycle =       0.0000
Reply_Network_out_buffer_avg_util =       0.0440
----------------------------END-of-Interconnect-DETAILS-------------------------


gpgpu_simulation_time = 2 days, 3 hrs, 45 min, 4 sec (186304 sec)
gpgpu_simulation_rate = 4184 (inst/sec)
gpgpu_simulation_rate = 418 (cycle/sec)
gpgpu_silicon_slowdown = 3265550x
GPGPU-Sim: synchronize waiting for inactive GPU simulation
GPGPU-Sim API: Stream Manager State
GPGPU-Sim: detected inactive GPU simulation thread
	iterations = 3.
	runtime [cuda_base] = 186262660.069000 ms.
Verifying...
	runtime [serial] = 296.399000 ms.
Correct
GPGPU-Sim: *** exit detected ***
