

        *** GPGPU-Sim Simulator Version 4.2.0  [build gpgpu-sim_git-commit-5e9d31b8132651796656877ecb58fde27177ba7a_modified_303.0] ***


GPGPU-Sim PTX: simulation mode 0 (can change with PTX_SIM_MODE_FUNC environment variable:
               1=functional simulation only, 0=detailed performance simulator)
GPGPU-Sim PTX: overriding embedded ptx with ptx file (PTX_SIM_USE_PTX_FILE is set)
GPGPU-Sim: Configuration options:

-save_embedded_ptx                      0 # saves ptx files embedded in binary as <n>.ptx
-keep                                   0 # keep intermediate files created by GPGPU-Sim when interfacing with external programs
-gpgpu_ptx_save_converted_ptxplus                    0 # Saved converted ptxplus to a file
-gpgpu_occupancy_sm_number                   75 # The SM number to pass to ptxas when getting register usage for computing GPU occupancy. This parameter is required in the config.
-ptx_opcode_latency_int           4,4,4,4,21 # Opcode latencies for integers <ADD,MAX,MUL,MAD,DIV,SHFL>Default 1,1,19,25,145,32
-ptx_opcode_latency_fp           4,4,4,4,39 # Opcode latencies for single precision floating points <ADD,MAX,MUL,MAD,DIV>Default 1,1,1,1,30
-ptx_opcode_latency_dp      64,64,64,64,330 # Opcode latencies for double precision floating points <ADD,MAX,MUL,MAD,DIV>Default 8,8,8,8,335
-ptx_opcode_latency_sfu                   21 # Opcode latencies for SFU instructionsDefault 8
-ptx_opcode_latency_tesnor                   64 # Opcode latencies for Tensor instructionsDefault 64
-ptx_opcode_initiation_int            2,2,2,2,2 # Opcode initiation intervals for integers <ADD,MAX,MUL,MAD,DIV,SHFL>Default 1,1,4,4,32,4
-ptx_opcode_initiation_fp            2,2,2,2,4 # Opcode initiation intervals for single precision floating points <ADD,MAX,MUL,MAD,DIV>Default 1,1,1,1,5
-ptx_opcode_initiation_dp      64,64,64,64,130 # Opcode initiation intervals for double precision floating points <ADD,MAX,MUL,MAD,DIV>Default 8,8,8,8,130
-ptx_opcode_initiation_sfu                    8 # Opcode initiation intervals for sfu instructionsDefault 8
-ptx_opcode_initiation_tensor                   64 # Opcode initiation intervals for tensor instructionsDefault 64
-cdp_latency         7200,8000,100,12000,1600 # CDP API latency <cudaStreamCreateWithFlags, cudaGetParameterBufferV2_init_perWarp, cudaGetParameterBufferV2_perKernel, cudaLaunchDeviceV2_init_perWarp, cudaLaunchDevicV2_perKernel>Default 7200,8000,100,12000,1600
-network_mode                           2 # Interconnection network mode
-inter_config_file                   mesh # Interconnection network config file
-icnt_in_buffer_limit                  512 # in_buffer_limit
-icnt_out_buffer_limit                  512 # out_buffer_limit
-icnt_subnets                           2 # subnets
-icnt_arbiter_algo                      1 # arbiter_algo
-icnt_verbose                           0 # inct_verbose
-icnt_grant_cycles                      1 # grant_cycles
-gpgpu_ptx_use_cuobjdump                    1 # Use cuobjdump to extract ptx and sass from binaries
-gpgpu_experimental_lib_support                    0 # Try to extract code from cuda libraries [Broken because of unknown cudaGetExportTable]
-checkpoint_option                      0 #  checkpointing flag (0 = no checkpoint)
-checkpoint_kernel                      1 #  checkpointing during execution of which kernel (1- 1st kernel)
-checkpoint_CTA                         0 #  checkpointing after # of CTA (< less than total CTA)
-resume_option                          0 #  resume flag (0 = no resume)
-resume_kernel                          0 #  Resume from which kernel (1= 1st kernel)
-resume_CTA                             0 #  resume from which CTA 
-checkpoint_CTA_t                       0 #  resume from which CTA 
-checkpoint_insn_Y                      0 #  resume from which CTA 
-gpgpu_ptx_convert_to_ptxplus                    0 # Convert SASS (native ISA) to ptxplus and run ptxplus
-gpgpu_ptx_force_max_capability                   75 # Force maximum compute capability
-gpgpu_ptx_inst_debug_to_file                    0 # Dump executed instructions' debug information to file
-gpgpu_ptx_inst_debug_file       inst_debug.txt # Executed instructions' debug output file
-gpgpu_ptx_inst_debug_thread_uid                    1 # Thread UID for executed instructions' debug output
-gpgpu_simd_model                       1 # 1 = post-dominator
-gpgpu_shader_core_pipeline              1024:32 # shader core pipeline config, i.e., {<nthread>:<warpsize>}
-gpgpu_tex_cache:l1  N:4:128:256,L:R:m:N:L,T:512:8,128:2 # per-shader L1 texture cache  (READ-ONLY) config  {<nsets>:<bsize>:<assoc>,<rep>:<wr>:<alloc>:<wr_alloc>,<mshr>:<N>:<merge>,<mq>:<rf>}
-gpgpu_const_cache:l1 N:128:64:8,L:R:f:N:L,S:2:64,4 # per-shader L1 constant memory cache  (READ-ONLY) config  {<nsets>:<bsize>:<assoc>,<rep>:<wr>:<alloc>:<wr_alloc>,<mshr>:<N>:<merge>,<mq>} 
-gpgpu_cache:il1     N:64:128:16,L:R:f:N:L,S:2:48,4 # shader L1 instruction cache config  {<nsets>:<bsize>:<assoc>,<rep>:<wr>:<alloc>:<wr_alloc>,<mshr>:<N>:<merge>,<mq>} 
-gpgpu_cache:dl1     S:4:128:64,L:T:m:L:L,A:256:32,16:0,32 # per-shader L1 data cache config  {<nsets>:<bsize>:<assoc>,<rep>:<wr>:<alloc>:<wr_alloc>,<mshr>:<N>:<merge>,<mq> | none}
-gpgpu_l1_cache_write_ratio                   25 # L1D write ratio
-gpgpu_l1_banks                         4 # The number of L1 cache banks
-gpgpu_l1_banks_byte_interleaving                   32 # l1 banks byte interleaving granularity
-gpgpu_l1_banks_hashing_function                    0 # l1 banks hashing function
-gpgpu_l1_latency                      32 # L1 Hit Latency
-gpgpu_smem_latency                    30 # smem Latency
-gpgpu_cache:dl1PrefL1                 none # per-shader L1 data cache config  {<nsets>:<bsize>:<assoc>,<rep>:<wr>:<alloc>:<wr_alloc>,<mshr>:<N>:<merge>,<mq> | none}
-gpgpu_cache:dl1PrefShared                 none # per-shader L1 data cache config  {<nsets>:<bsize>:<assoc>,<rep>:<wr>:<alloc>:<wr_alloc>,<mshr>:<N>:<merge>,<mq> | none}
-gpgpu_gmem_skip_L1D                    0 # global memory access skip L1D cache (implements -Xptxas -dlcm=cg, default=no skip)
-gpgpu_perfect_mem                      0 # enable perfect memory mode (no cache miss)
-n_regfile_gating_group                    4 # group of lanes that should be read/written together)
-gpgpu_clock_gated_reg_file                    0 # enable clock gated reg file for power calculations
-gpgpu_clock_gated_lanes                    0 # enable clock gated lanes for power calculations
-gpgpu_shader_registers                65536 # Number of registers per shader core. Limits number of concurrent CTAs. (default 8192)
-gpgpu_registers_per_block                65536 # Maximum number of registers per CTA. (default 8192)
-gpgpu_ignore_resources_limitation                    0 # gpgpu_ignore_resources_limitation (default 0)
-gpgpu_shader_cta                      16 # Maximum number of concurrent CTAs in shader (default 32)
-gpgpu_num_cta_barriers                   16 # Maximum number of named barriers per CTA (default 16)
-gpgpu_n_clusters                      30 # number of processing clusters
-gpgpu_n_cores_per_cluster                    1 # number of simd cores per cluster
-gpgpu_n_cluster_ejection_buffer_size                   32 # number of packets in ejection buffer
-gpgpu_n_ldst_response_buffer_size                    2 # number of response packets in ld/st unit ejection buffer
-gpgpu_shmem_per_block                49152 # Size of shared memory per thread block or CTA (default 48kB)
-gpgpu_shmem_size                   65536 # Size of shared memory per shader core (default 16kB)
-gpgpu_shmem_option                 32,64 # Option list of shared memory sizes
-gpgpu_unified_l1d_size                   96 # Size of unified data cache(L1D + shared memory) in KB
-gpgpu_adaptive_cache_config                    1 # adaptive_cache_config
-gpgpu_shmem_sizeDefault                65536 # Size of shared memory per shader core (default 16kB)
-gpgpu_shmem_size_PrefL1                16384 # Size of shared memory per shader core (default 16kB)
-gpgpu_shmem_size_PrefShared                16384 # Size of shared memory per shader core (default 16kB)
-gpgpu_shmem_num_banks                   32 # Number of banks in the shared memory in each shader core (default 16)
-gpgpu_shmem_limited_broadcast                    0 # Limit shared memory to do one broadcast per cycle (default on)
-gpgpu_shmem_warp_parts                    1 # Number of portions a warp is divided into for shared memory bank conflict check 
-gpgpu_mem_unit_ports                    1 # The number of memory transactions allowed per core cycle
-gpgpu_shmem_warp_parts                    1 # Number of portions a warp is divided into for shared memory bank conflict check 
-gpgpu_warpdistro_shader                   -1 # Specify which shader core to collect the warp size distribution from
-gpgpu_warp_issue_shader                    0 # Specify which shader core to collect the warp issue distribution from
-gpgpu_local_mem_map                    1 # Mapping from local memory space address to simulated GPU physical address space (default = enabled)
-gpgpu_num_reg_banks                    8 # Number of register banks (default = 8)
-gpgpu_reg_bank_use_warp_id                    0 # Use warp ID in mapping registers to banks (default = off)
-gpgpu_sub_core_model                    1 # Sub Core Volta/Pascal model (default = off)
-gpgpu_enable_specialized_operand_collector                    0 # enable_specialized_operand_collector
-gpgpu_operand_collector_num_units_sp                    4 # number of collector units (default = 4)
-gpgpu_operand_collector_num_units_dp                    0 # number of collector units (default = 0)
-gpgpu_operand_collector_num_units_sfu                    4 # number of collector units (default = 4)
-gpgpu_operand_collector_num_units_int                    0 # number of collector units (default = 0)
-gpgpu_operand_collector_num_units_tensor_core                    4 # number of collector units (default = 4)
-gpgpu_operand_collector_num_units_mem                    2 # number of collector units (default = 2)
-gpgpu_operand_collector_num_units_gen                    8 # number of collector units (default = 0)
-gpgpu_operand_collector_num_in_ports_sp                    1 # number of collector unit in ports (default = 1)
-gpgpu_operand_collector_num_in_ports_dp                    0 # number of collector unit in ports (default = 0)
-gpgpu_operand_collector_num_in_ports_sfu                    1 # number of collector unit in ports (default = 1)
-gpgpu_operand_collector_num_in_ports_int                    0 # number of collector unit in ports (default = 0)
-gpgpu_operand_collector_num_in_ports_tensor_core                    1 # number of collector unit in ports (default = 1)
-gpgpu_operand_collector_num_in_ports_mem                    1 # number of collector unit in ports (default = 1)
-gpgpu_operand_collector_num_in_ports_gen                    8 # number of collector unit in ports (default = 0)
-gpgpu_operand_collector_num_out_ports_sp                    1 # number of collector unit in ports (default = 1)
-gpgpu_operand_collector_num_out_ports_dp                    0 # number of collector unit in ports (default = 0)
-gpgpu_operand_collector_num_out_ports_sfu                    1 # number of collector unit in ports (default = 1)
-gpgpu_operand_collector_num_out_ports_int                    0 # number of collector unit in ports (default = 0)
-gpgpu_operand_collector_num_out_ports_tensor_core                    1 # number of collector unit in ports (default = 1)
-gpgpu_operand_collector_num_out_ports_mem                    1 # number of collector unit in ports (default = 1)
-gpgpu_operand_collector_num_out_ports_gen                    8 # number of collector unit in ports (default = 0)
-gpgpu_coalesce_arch                   75 # Coalescing arch (GT200 = 13, Fermi = 20)
-gpgpu_num_sched_per_core                    4 # Number of warp schedulers per core
-gpgpu_max_insn_issue_per_warp                    1 # Max number of instructions that can be issued per warp in one cycle by scheduler (either 1 or 2)
-gpgpu_dual_issue_diff_exec_units                    1 # should dual issue use two different execution unit resources (Default = 1)
-gpgpu_simt_core_sim_order                    1 # Select the simulation order of cores in a cluster (0=Fix, 1=Round-Robin)
-gpgpu_pipeline_widths 4,4,4,4,4,4,4,4,4,4,8,4,4 # Pipeline widths ID_OC_SP,ID_OC_DP,ID_OC_INT,ID_OC_SFU,ID_OC_MEM,OC_EX_SP,OC_EX_DP,OC_EX_INT,OC_EX_SFU,OC_EX_MEM,EX_WB,ID_OC_TENSOR_CORE,OC_EX_TENSOR_CORE
-gpgpu_tensor_core_avail                    1 # Tensor Core Available (default=0)
-gpgpu_num_sp_units                     4 # Number of SP units (default=1)
-gpgpu_num_dp_units                     4 # Number of DP units (default=0)
-gpgpu_num_int_units                    4 # Number of INT units (default=0)
-gpgpu_num_sfu_units                    4 # Number of SF units (default=1)
-gpgpu_num_tensor_core_units                    4 # Number of tensor_core units (default=1)
-gpgpu_num_mem_units                    1 # Number if ldst units (default=1) WARNING: not hooked up to anything
-kernelBased                            1 # Does the approximator work as kernel based (default = 0)
-kernelId                               9 # Kernel ids where the approximation applied 
-hybridApproximation                    0 # Hybrid approximator (default = 0)
-errorPercentage                       50 # Error percentage (number of max flushed accesses)
-l1dApproximator                        1 # Memory access delete unit (default = 0)
-l1dSlicingAccessInterval                 5000 # Slice access window length (default = 1000)
-l2Approximator                         0 # Memory access delete unit (default = 0)
-l2SlicingAccessInterval                 5000 # Slice access window length (default = 1000)
-smOccupancy                            0 # sm occupancy (default = 0)
-smSlicingInterval                   5000 # Slice access window length (default = 1000)
-gpgpu_scheduler                      lrr # Scheduler configuration: < lrr | gto | two_level_active > If two_level_active:<num_active_warps>:<inner_prioritization>:<outer_prioritization>For complete list of prioritization values see shader.h enum scheduler_prioritization_typeDefault: gto
-gpgpu_concurrent_kernel_sm                    0 # Support concurrent kernels on a SM (default = disabled)
-gpgpu_perfect_inst_const_cache                    1 # perfect inst and const cache mode, so all inst and const hits in the cache(default = disabled)
-gpgpu_inst_fetch_throughput                    4 # the number of fetched intruction per warp each cycle
-gpgpu_reg_file_port_throughput                    2 # the number ports of the register file
-specialized_unit_1         0,4,4,4,4,BRA # specialized unit config {<enabled>,<num_units>:<latency>:<initiation>,<ID_OC_SPEC>:<OC_EX_SPEC>,<NAME>}
-specialized_unit_2         0,4,4,4,4,BRA # specialized unit config {<enabled>,<num_units>:<latency>:<initiation>,<ID_OC_SPEC>:<OC_EX_SPEC>,<NAME>}
-specialized_unit_3         0,4,4,4,4,BRA # specialized unit config {<enabled>,<num_units>:<latency>:<initiation>,<ID_OC_SPEC>:<OC_EX_SPEC>,<NAME>}
-specialized_unit_4         0,4,4,4,4,BRA # specialized unit config {<enabled>,<num_units>:<latency>:<initiation>,<ID_OC_SPEC>:<OC_EX_SPEC>,<NAME>}
-specialized_unit_5         0,4,4,4,4,BRA # specialized unit config {<enabled>,<num_units>:<latency>:<initiation>,<ID_OC_SPEC>:<OC_EX_SPEC>,<NAME>}
-specialized_unit_6         0,4,4,4,4,BRA # specialized unit config {<enabled>,<num_units>:<latency>:<initiation>,<ID_OC_SPEC>:<OC_EX_SPEC>,<NAME>}
-specialized_unit_7         0,4,4,4,4,BRA # specialized unit config {<enabled>,<num_units>:<latency>:<initiation>,<ID_OC_SPEC>:<OC_EX_SPEC>,<NAME>}
-specialized_unit_8         0,4,4,4,4,BRA # specialized unit config {<enabled>,<num_units>:<latency>:<initiation>,<ID_OC_SPEC>:<OC_EX_SPEC>,<NAME>}
-gpgpu_perf_sim_memcpy                    1 # Fill the L2 cache on memcpy
-gpgpu_simple_dram_model                    0 # simple_dram_model with fixed latency and BW
-gpgpu_dram_scheduler                    1 # 0 = fifo, 1 = FR-FCFS (defaul)
-gpgpu_dram_partition_queues          64:64:64:64 # i2$:$2d:d2$:$2i
-l2_ideal                               0 # Use a ideal L2 cache that always hit
-gpgpu_cache:dl2     S:64:128:16,L:B:m:L:P,A:192:4,32:0,32 # unified banked L2 data cache config  {<nsets>:<bsize>:<assoc>,<rep>:<wr>:<alloc>:<wr_alloc>,<mshr>:<N>:<merge>,<mq>}
-gpgpu_cache:dl2_texture_only                    0 # L2 cache used for texture only
-gpgpu_n_mem                           12 # number of memory modules (e.g. memory controllers) in gpu
-gpgpu_n_sub_partition_per_mchannel                    2 # number of memory subpartition in each memory module
-gpgpu_n_mem_per_ctrlr                    1 # number of memory chips per memory controller
-gpgpu_memlatency_stat                   14 # track and display latency statistics 0x2 enables MC, 0x4 enables queue logs
-gpgpu_frfcfs_dram_sched_queue_size                   64 # 0 = unlimited (default); # entries per chip
-gpgpu_dram_return_queue_size                  192 # 0 = unlimited (default); # entries per chip
-gpgpu_dram_buswidth                    2 # default = 4 bytes (8 bytes per cycle at DDR)
-gpgpu_dram_burst_length                   16 # Burst length of each DRAM request (default = 4 data bus cycle)
-dram_data_command_freq_ratio                    4 # Frequency ratio between DRAM data bus and command bus (default = 2 times, i.e. DDR)
-gpgpu_dram_timing_opt nbk=16:CCD=4:RRD=12:RCD=24:RAS=55:RP=24:RC=78:CL=24:WL=8:CDLR=10:WR=24:nbkgrp=4:CCDL=6:RTPL=4 # DRAM timing parameters = {nbk:tCCD:tRRD:tRCD:tRAS:tRP:tRC:CL:WL:tCDLR:tWR:nbkgrp:tCCDL:tRTPL}
-gpgpu_l2_rop_latency                  194 # ROP queue latency (default 85)
-dram_latency                          96 # DRAM latency (default 30)
-dram_dual_bus_interface                    0 # dual_bus_interface (default = 0) 
-dram_bnk_indexing_policy                    0 # dram_bnk_indexing_policy (0 = normal indexing, 1 = Xoring with the higher bits) (Default = 0)
-dram_bnkgrp_indexing_policy                    1 # dram_bnkgrp_indexing_policy (0 = take higher bits, 1 = take lower bits) (Default = 0)
-dram_seperate_write_queue_enable                    0 # Seperate_Write_Queue_Enable
-dram_write_queue_size             32:28:16 # Write_Queue_Size
-dram_elimnate_rw_turnaround                    0 # elimnate_rw_turnaround i.e set tWTR and tRTW = 0
-icnt_flit_size                        40 # icnt_flit_size
-icnt_flit_size                        40 # icnt_flit_size
-mem_profiler                           0 # memory access runtime profiling (0 = not enabled)
-gpgpu_mem_addr_mapping dramid@8;00000000.00000000.00000000.00000000.0000RRRR.RRRRRRRR.RBBBCCCC.BCCSSSSS # mapping memory address to dram model {dramid@<start bit>;<memory address map>}
-gpgpu_mem_addr_test                    0 # run sweep test to check address mapping for aliased address
-gpgpu_mem_address_mask                    1 # 0 = old addressing mask, 1 = new addressing mask, 2 = new add. mask + flipped bank sel and chip sel bits
-gpgpu_memory_partition_indexing                    0 # 0 = no indexing, 1 = bitwise xoring, 2 = IPoly, 3 = custom indexing
-accelwattch_xml_file accelwattch_sass_sim.xml # AccelWattch XML file
-power_simulation_enabled                    1 # Turn on power simulator (1=On, 0=Off)
-power_per_cycle_dump                    1 # Dump detailed power output each cycle
-hw_perf_file_name            hw_perf.csv # Hardware Performance Statistics file
-hw_perf_bench_name    hw_perf_bench_name # Kernel Name in Hardware Performance Statistics file
-power_simulation_mode                    0 # Switch performance counter input for power simulation (0=Sim, 1=HW, 2=HW-Sim Hybrid)
-dvfs_enabled                           1 # Turn on DVFS for power model
-aggregate_power_stats                    0 # Accumulate power across all kernels
-accelwattch_hybrid_perfsim_L1_RH                    0 # Get L1 Read Hits for Accelwattch-Hybrid from Accel-Sim
-accelwattch_hybrid_perfsim_L1_RM                    0 # Get L1 Read Misses for Accelwattch-Hybrid from Accel-Sim
-accelwattch_hybrid_perfsim_L1_WH                    0 # Get L1 Write Hits for Accelwattch-Hybrid from Accel-Sim
-accelwattch_hybrid_perfsim_L1_WM                    0 # Get L1 Write Misses for Accelwattch-Hybrid from Accel-Sim
-accelwattch_hybrid_perfsim_L2_RH                    0 # Get L2 Read Hits for Accelwattch-Hybrid from Accel-Sim
-accelwattch_hybrid_perfsim_L2_RM                    0 # Get L2 Read Misses for Accelwattch-Hybrid from Accel-Sim
-accelwattch_hybrid_perfsim_L2_WH                    0 # Get L2 Write Hits for Accelwattch-Hybrid from Accel-Sim
-accelwattch_hybrid_perfsim_L2_WM                    0 # Get L2 Write Misses for Accelwattch-Hybrid from Accel-Sim
-accelwattch_hybrid_perfsim_CC_ACC                    0 # Get Constant Cache Acesses for Accelwattch-Hybrid from Accel-Sim
-accelwattch_hybrid_perfsim_SHARED_ACC                    0 # Get Shared Memory Acesses for Accelwattch-Hybrid from Accel-Sim
-accelwattch_hybrid_perfsim_DRAM_RD                    0 # Get DRAM Reads for Accelwattch-Hybrid from Accel-Sim
-accelwattch_hybrid_perfsim_DRAM_WR                    0 # Get DRAM Writes for Accelwattch-Hybrid from Accel-Sim
-accelwattch_hybrid_perfsim_NOC                    0 # Get Interconnect Acesses for Accelwattch-Hybrid from Accel-Sim
-accelwattch_hybrid_perfsim_PIPE_DUTY                    0 # Get Pipeline Duty Cycle Acesses for Accelwattch-Hybrid from Accel-Sim
-accelwattch_hybrid_perfsim_NUM_SM_IDLE                    0 # Get Number of Idle SMs for Accelwattch-Hybrid from Accel-Sim
-accelwattch_hybrid_perfsim_CYCLES                    0 # Get Executed Cycles for Accelwattch-Hybrid from Accel-Sim
-accelwattch_hybrid_perfsim_VOLTAGE                    0 # Get Chip Voltage for Accelwattch-Hybrid from Accel-Sim
-power_trace_enabled                    0 # produce a file for the power trace (1=On, 0=Off)
-power_trace_zlevel                     0 # Compression level of the power trace output log (0=no comp, 9=highest)
-steady_power_levels_enabled                    0 # produce a file for the steady power levels (1=On, 0=Off)
-steady_state_definition                  8:4 # allowed deviation:number of samples
-gpgpu_max_cycle                        0 # terminates gpu simulation early (0 = no limit)
-gpgpu_max_insn                         0 # terminates gpu simulation early (0 = no limit)
-gpgpu_max_cta                          0 # terminates gpu simulation early (0 = no limit)
-gpgpu_max_completed_cta                    0 # terminates gpu simulation early (0 = no limit)
-gpgpu_runtime_stat                  1000 # display runtime statistics such as dram utilization {<freq>:<flag>}
-liveness_message_freq                    1 # Minimum number of seconds between simulation liveness messages (0 = always print)
-gpgpu_compute_capability_major                    7 # Major compute capability version number
-gpgpu_compute_capability_minor                    5 # Minor compute capability version number
-gpgpu_flush_l1_cache                    1 # Flush L1 cache at the end of each kernel call
-gpgpu_flush_l2_cache                    0 # Flush L2 cache at the end of each kernel call
-gpgpu_deadlock_detect                    1 # Stop the simulation at deadlock (1=on (default), 0=off)
-gpgpu_ptx_instruction_classification                    0 # if enabled will classify ptx instruction types per kernel (Max 255 kernels now)
-gpgpu_ptx_sim_mode                     0 # Select between Performance (default) or Functional simulation (1)
-gpgpu_clock_domains 1365:1365:1365:3500.5 # Clock Domain Frequencies in MhZ {<Core Clock>:<ICNT Clock>:<L2 Clock>:<DRAM Clock>}
-gpgpu_max_concurrent_kernel                  128 # maximum kernels that can run concurrently on GPU, set this value according to max resident grids for your compute capability
-gpgpu_cflog_interval                    0 # Interval between each snapshot in control flow logger
-visualizer_enabled                     0 # Turn on visualizer output (1=On, 0=Off)
-visualizer_outputfile                 NULL # Specifies the output log file for visualizer
-visualizer_zlevel                      6 # Compression level of the visualizer output log (0=no comp, 9=highest)
-gpgpu_stack_size_limit                 1024 # GPU thread stack size
-gpgpu_heap_size_limit              8388608 # GPU malloc heap size 
-gpgpu_runtime_sync_depth_limit                    2 # GPU device runtime synchronize depth
-gpgpu_runtime_pending_launch_count_limit                 2048 # GPU device runtime pending launch count
-trace_enabled                          0 # Turn on traces
-trace_components                    none # comma seperated list of traces to enable. Complete list found in trace_streams.tup. Default none
-trace_sampling_core                    0 # The core which is printed using CORE_DPRINTF. Default 0
-trace_sampling_memory_partition                   -1 # The memory partition which is printed using MEMPART_DPRINTF. Default -1 (i.e. all)
-enable_ptx_file_line_stats                    1 # Turn on PTX source line statistic profiling. (1 = On)
-ptx_line_stats_filename gpgpu_inst_stats.txt # Output file for PTX source line statistics.
-gpgpu_kernel_launch_latency                 5000 # Kernel launch latency in cycles. Default: 0
-gpgpu_cdp_enabled                      0 # Turn on CDP
-gpgpu_TB_launch_latency                    0 # thread block launch latency in cycles. Default: 0
-mem_runtime_stat                     100 # memory access runtime profiling sampling freq
-L1D_metrics                            0 # memory access runtime profiling for L1 data cache
-noncoal_metrics                        0 # memory access runtime profiling for shared memory
-L2_metrics                             0 # memory access runtime profiling for L2 cache
-DRAM_metrics                           0 # memory access runtime profiling for DRAM
-Shmem_metrics                          0 # memory access runtime profiling for noncoalesced accesses
-store_enable                           0 # Enable stores for memory profiling
-accumulate_stats                       0 # Accumulate stats for the memory profiling
-dump_enable                            0 # Process dump enable flag - (def = 0)
-flush_l1d                              0 # Enable flushings for L1D caches - (default = 0)
-flush_l2                               0 # Enable flushings for L2 caches - (default = 0)
-flush_dram                             0 # Enable flushings for DRAM - (default = 0)
-flush_noncoalesceds                    0 # Enable flushings for non coalesced accesses - (default = 0)
-flush_shmems                           0 # Enable flushings for shared memory accesses - (default = 0)
-error_percentage                       2 # Error percentage for the flushes - (default = 1)
-flush_acc_type                         2 # Flush access types
-monitor_sampling_cycle                  200 # Monitoring sampling cycle - (default = 5000)
DRAM Timing Options:
nbk                                    16 # number of banks
CCD                                     4 # column to column delay
RRD                                    12 # minimal delay between activation of rows in different banks
RCD                                    24 # row to column delay
RAS                                    55 # time needed to activate row
RP                                     24 # time needed to precharge (deactivate) row
RC                                     78 # row cycle time
CDLR                                   10 # switching from write to read (changes tWTR)
WR                                     24 # last data-in to row precharge
CL                                     24 # CAS latency
WL                                      8 # Write latency
nbkgrp                                  4 # number of bank groups
CCDL                                    6 # column to column delay between accesses to different bank groups
RTPL                                    4 # read to precharge delay between accesses to different bank groups
Total number of memory sub partition = 24
addr_dec_mask[CHIP]  = 0000000000000000 	high:64 low:0
addr_dec_mask[BK]    = 0000000000007080 	high:15 low:7
addr_dec_mask[ROW]   = 000000000fff8000 	high:28 low:15
addr_dec_mask[COL]   = 0000000000000f7f 	high:12 low:0
addr_dec_mask[BURST] = 000000000000001f 	high:5 low:0
sub_partition_id_mask = 0000000000000080
GPGPU-Sim uArch: clock freqs: 1365000000.000000:1365000000.000000:1365000000.000000:3500500000.000000
GPGPU-Sim uArch: clock periods: 0.00000000073260073260:0.00000000073260073260:0.00000000073260073260:0.00000000028567347522
*** Initializing Memory Statistics ***
GPGPU-Sim uArch: performance model initialization complete.
--------------------------------------------------------------
L1D access stats (for 0'th SM) 
--	Kid = 0 || L1D Acc = 24576, -- Miss = 24576, rate = 1.0000, -- PendHits = 0, rate = 0.0000-- ResFail = 19, rate = 0.0008
Error Per = 50 || Flushes = 491 || slicingInterval = 5000
--	Kid = 1 || L1D Acc = 40320, -- Miss = 40320, rate = 1.0000, -- PendHits = 0, rate = 0.0000-- ResFail = 0, rate = 0.0000
Error Per = 50 || Flushes = 806 || slicingInterval = 5000
--	Kid = 2 || L1D Acc = 0, -- Miss = 0, rate = -nan, -- PendHits = 0, rate = -nan-- ResFail = 0, rate = -nan
Error Per = 50 || Flushes = 0 || slicingInterval = 5000
--	Kid = 3 || L1D Acc = 175608, -- Miss = 171258, rate = 0.9752, -- PendHits = 444, rate = 0.0025-- ResFail = 59326, rate = 0.3378
Error Per = 50 || Flushes = 3425 || slicingInterval = 5000
--	Kid = 4 || L1D Acc = 17536, -- Miss = 17536, rate = 1.0000, -- PendHits = 0, rate = 0.0000-- ResFail = 16478, rate = 0.9397
Error Per = 50 || Flushes = 350 || slicingInterval = 5000
--	Kid = 5 || L1D Acc = 34748, -- Miss = 17414, rate = 0.5012, -- PendHits = 0, rate = 0.0000-- ResFail = 46062, rate = 1.3256
Error Per = 50 || Flushes = 348 || slicingInterval = 5000
--	Kid = 6 || L1D Acc = 35765, -- Miss = 17903, rate = 0.5006, -- PendHits = 0, rate = 0.0000-- ResFail = 23818, rate = 0.6660
Error Per = 50 || Flushes = 358 || slicingInterval = 5000
--	Kid = 7 || L1D Acc = 38716, -- Miss = 37291, rate = 0.9632, -- PendHits = 0, rate = 0.0000-- ResFail = 206, rate = 0.0053
Error Per = 50 || Flushes = 745 || slicingInterval = 5000
--	Kid = 8 || L1D Acc = 38729, -- Miss = 36870, rate = 0.9520, -- PendHits = 0, rate = 0.0000-- ResFail = 0, rate = 0.0000
Error Per = 50 || Flushes = 737 || slicingInterval = 5000
--	Kid = 9 || L1D Acc = 25839, -- Miss = 23730, rate = 0.9184, -- PendHits = 0, rate = 0.0000-- ResFail = 0, rate = 0.0000
Error Per = 50 || Flushes = 474 || slicingInterval = 5000
--	Kid = 10 || L1D Acc = 37651, -- Miss = 32700, rate = 0.8685, -- PendHits = 0, rate = 0.0000-- ResFail = 281, rate = 0.0075
Error Per = 50 || Flushes = 654 || slicingInterval = 5000
--	Kid = 11 || L1D Acc = 23690, -- Miss = 11958, rate = 0.5048, -- PendHits = 0, rate = 0.0000-- ResFail = 0, rate = 0.0000
Error Per = 50 || Flushes = 239 || slicingInterval = 5000
--	Kid = 12 || L1D Acc = 42510, -- Miss = 21333, rate = 0.5018, -- PendHits = 0, rate = 0.0000-- ResFail = 0, rate = 0.0000
Error Per = 50 || Flushes = 426 || slicingInterval = 5000
--	Kid = 13 || L1D Acc = 70673, -- Miss = 35412, rate = 0.5011, -- PendHits = 0, rate = 0.0000-- ResFail = 51, rate = 0.0007
Error Per = 50 || Flushes = 708 || slicingInterval = 5000
--	Kid = 14 || L1D Acc = 0, -- Miss = 0, rate = -nan, -- PendHits = 0, rate = -nan-- ResFail = 0, rate = -nan
Error Per = 50 || Flushes = 0 || slicingInterval = 5000
--	Kid = 15 || L1D Acc = 0, -- Miss = 0, rate = -nan, -- PendHits = 0, rate = -nan-- ResFail = 0, rate = -nan
Error Per = 50 || Flushes = 0 || slicingInterval = 5000
--	Kid = 16 || L1D Acc = 42481, -- Miss = 35784, rate = 0.8424, -- PendHits = 3421, rate = 0.0805-- ResFail = 9310, rate = 0.2192
Error Per = 50 || Flushes = 715 || slicingInterval = 5000
--------------------------------------------------------------
L1D access stats (for 1'th SM) 
--	Kid = 0 || L1D Acc = 24576, -- Miss = 24576, rate = 1.0000, -- PendHits = 0, rate = 0.0000-- ResFail = 19, rate = 0.0008
Error Per = 50 || Flushes = 491 || slicingInterval = 5000
--	Kid = 1 || L1D Acc = 42624, -- Miss = 42624, rate = 1.0000, -- PendHits = 0, rate = 0.0000-- ResFail = 60, rate = 0.0014
Error Per = 50 || Flushes = 852 || slicingInterval = 5000
--	Kid = 2 || L1D Acc = 0, -- Miss = 0, rate = -nan, -- PendHits = 0, rate = -nan-- ResFail = 0, rate = -nan
Error Per = 50 || Flushes = 0 || slicingInterval = 5000
--	Kid = 3 || L1D Acc = 196934, -- Miss = 192507, rate = 0.9775, -- PendHits = 626, rate = 0.0032-- ResFail = 87378, rate = 0.4437
Error Per = 50 || Flushes = 3850 || slicingInterval = 5000
--	Kid = 4 || L1D Acc = 17408, -- Miss = 17408, rate = 1.0000, -- PendHits = 0, rate = 0.0000-- ResFail = 17257, rate = 0.9913
Error Per = 50 || Flushes = 348 || slicingInterval = 5000
--	Kid = 5 || L1D Acc = 35741, -- Miss = 17905, rate = 0.5010, -- PendHits = 0, rate = 0.0000-- ResFail = 46790, rate = 1.3091
Error Per = 50 || Flushes = 358 || slicingInterval = 5000
--	Kid = 6 || L1D Acc = 35526, -- Miss = 17782, rate = 0.5005, -- PendHits = 0, rate = 0.0000-- ResFail = 21152, rate = 0.5954
Error Per = 50 || Flushes = 355 || slicingInterval = 5000
--	Kid = 7 || L1D Acc = 32355, -- Miss = 31435, rate = 0.9716, -- PendHits = 0, rate = 0.0000-- ResFail = 0, rate = 0.0000
Error Per = 50 || Flushes = 628 || slicingInterval = 5000
--	Kid = 8 || L1D Acc = 35454, -- Miss = 32640, rate = 0.9206, -- PendHits = 0, rate = 0.0000-- ResFail = 0, rate = 0.0000
Error Per = 50 || Flushes = 652 || slicingInterval = 5000
--	Kid = 9 || L1D Acc = 25873, -- Miss = 24370, rate = 0.9419, -- PendHits = 0, rate = 0.0000-- ResFail = 15, rate = 0.0006
Error Per = 50 || Flushes = 487 || slicingInterval = 5000
--	Kid = 10 || L1D Acc = 37457, -- Miss = 31521, rate = 0.8415, -- PendHits = 0, rate = 0.0000-- ResFail = 1239, rate = 0.0331
Error Per = 50 || Flushes = 630 || slicingInterval = 5000
--	Kid = 11 || L1D Acc = 23687, -- Miss = 12253, rate = 0.5173, -- PendHits = 0, rate = 0.0000-- ResFail = 0, rate = 0.0000
Error Per = 50 || Flushes = 245 || slicingInterval = 5000
--	Kid = 12 || L1D Acc = 42774, -- Miss = 21488, rate = 0.5024, -- PendHits = 0, rate = 0.0000-- ResFail = 1, rate = 0.0000
Error Per = 50 || Flushes = 429 || slicingInterval = 5000
--	Kid = 13 || L1D Acc = 71200, -- Miss = 35662, rate = 0.5009, -- PendHits = 0, rate = 0.0000-- ResFail = 43, rate = 0.0006
Error Per = 50 || Flushes = 713 || slicingInterval = 5000
--	Kid = 14 || L1D Acc = 0, -- Miss = 0, rate = -nan, -- PendHits = 0, rate = -nan-- ResFail = 0, rate = -nan
Error Per = 50 || Flushes = 0 || slicingInterval = 5000
--	Kid = 15 || L1D Acc = 0, -- Miss = 0, rate = -nan, -- PendHits = 0, rate = -nan-- ResFail = 0, rate = -nan
Error Per = 50 || Flushes = 0 || slicingInterval = 5000
--	Kid = 16 || L1D Acc = 42850, -- Miss = 36266, rate = 0.8463, -- PendHits = 3280, rate = 0.0765-- ResFail = 8414, rate = 0.1964
Error Per = 50 || Flushes = 725 || slicingInterval = 5000
--------------------------------------------------------------
L1D access stats (for 2'th SM) 
--	Kid = 0 || L1D Acc = 24576, -- Miss = 24576, rate = 1.0000, -- PendHits = 0, rate = 0.0000-- ResFail = 19, rate = 0.0008
Error Per = 50 || Flushes = 491 || slicingInterval = 5000
--	Kid = 1 || L1D Acc = 40320, -- Miss = 40320, rate = 1.0000, -- PendHits = 0, rate = 0.0000-- ResFail = 9, rate = 0.0002
Error Per = 50 || Flushes = 806 || slicingInterval = 5000
--	Kid = 2 || L1D Acc = 0, -- Miss = 0, rate = -nan, -- PendHits = 0, rate = -nan-- ResFail = 0, rate = -nan
Error Per = 50 || Flushes = 0 || slicingInterval = 5000
--	Kid = 3 || L1D Acc = 181016, -- Miss = 176211, rate = 0.9735, -- PendHits = 417, rate = 0.0023-- ResFail = 59357, rate = 0.3279
Error Per = 50 || Flushes = 3524 || slicingInterval = 5000
--	Kid = 4 || L1D Acc = 17664, -- Miss = 17664, rate = 1.0000, -- PendHits = 0, rate = 0.0000-- ResFail = 17667, rate = 1.0002
Error Per = 50 || Flushes = 353 || slicingInterval = 5000
--	Kid = 5 || L1D Acc = 33273, -- Miss = 16676, rate = 0.5012, -- PendHits = 0, rate = 0.0000-- ResFail = 44957, rate = 1.3512
Error Per = 50 || Flushes = 333 || slicingInterval = 5000
--	Kid = 6 || L1D Acc = 32491, -- Miss = 16260, rate = 0.5004, -- PendHits = 0, rate = 0.0000-- ResFail = 21372, rate = 0.6578
Error Per = 50 || Flushes = 325 || slicingInterval = 5000
--	Kid = 7 || L1D Acc = 38449, -- Miss = 37225, rate = 0.9682, -- PendHits = 0, rate = 0.0000-- ResFail = 4, rate = 0.0001
Error Per = 50 || Flushes = 744 || slicingInterval = 5000
--	Kid = 8 || L1D Acc = 25768, -- Miss = 24386, rate = 0.9464, -- PendHits = 0, rate = 0.0000-- ResFail = 0, rate = 0.0000
Error Per = 50 || Flushes = 487 || slicingInterval = 5000
--	Kid = 9 || L1D Acc = 51637, -- Miss = 47261, rate = 0.9153, -- PendHits = 0, rate = 0.0000-- ResFail = 618, rate = 0.0120
Error Per = 50 || Flushes = 945 || slicingInterval = 5000
--	Kid = 10 || L1D Acc = 37647, -- Miss = 33505, rate = 0.8900, -- PendHits = 0, rate = 0.0000-- ResFail = 556, rate = 0.0148
Error Per = 50 || Flushes = 670 || slicingInterval = 5000
--	Kid = 11 || L1D Acc = 23687, -- Miss = 12956, rate = 0.5470, -- PendHits = 0, rate = 0.0000-- ResFail = 0, rate = 0.0000
Error Per = 50 || Flushes = 259 || slicingInterval = 5000
--	Kid = 12 || L1D Acc = 42509, -- Miss = 21349, rate = 0.5022, -- PendHits = 0, rate = 0.0000-- ResFail = 6, rate = 0.0001
Error Per = 50 || Flushes = 426 || slicingInterval = 5000
--	Kid = 13 || L1D Acc = 71193, -- Miss = 35667, rate = 0.5010, -- PendHits = 0, rate = 0.0000-- ResFail = 10, rate = 0.0001
Error Per = 50 || Flushes = 713 || slicingInterval = 5000
--	Kid = 14 || L1D Acc = 0, -- Miss = 0, rate = -nan, -- PendHits = 0, rate = -nan-- ResFail = 0, rate = -nan
Error Per = 50 || Flushes = 0 || slicingInterval = 5000
--	Kid = 15 || L1D Acc = 0, -- Miss = 0, rate = -nan, -- PendHits = 0, rate = -nan-- ResFail = 0, rate = -nan
Error Per = 50 || Flushes = 0 || slicingInterval = 5000
--	Kid = 16 || L1D Acc = 42545, -- Miss = 35793, rate = 0.8413, -- PendHits = 3421, rate = 0.0804-- ResFail = 8424, rate = 0.1980
Error Per = 50 || Flushes = 715 || slicingInterval = 5000
--------------------------------------------------------------
L1D access stats (for 3'th SM) 
--	Kid = 0 || L1D Acc = 24576, -- Miss = 24576, rate = 1.0000, -- PendHits = 0, rate = 0.0000-- ResFail = 19, rate = 0.0008
Error Per = 50 || Flushes = 491 || slicingInterval = 5000
--	Kid = 1 || L1D Acc = 42624, -- Miss = 42624, rate = 1.0000, -- PendHits = 0, rate = 0.0000-- ResFail = 27, rate = 0.0006
Error Per = 50 || Flushes = 852 || slicingInterval = 5000
--	Kid = 2 || L1D Acc = 0, -- Miss = 0, rate = -nan, -- PendHits = 0, rate = -nan-- ResFail = 0, rate = -nan
Error Per = 50 || Flushes = 0 || slicingInterval = 5000
--	Kid = 3 || L1D Acc = 175645, -- Miss = 171285, rate = 0.9752, -- PendHits = 422, rate = 0.0024-- ResFail = 53798, rate = 0.3063
Error Per = 50 || Flushes = 3425 || slicingInterval = 5000
--	Kid = 4 || L1D Acc = 17536, -- Miss = 17536, rate = 1.0000, -- PendHits = 0, rate = 0.0000-- ResFail = 16819, rate = 0.9591
Error Per = 50 || Flushes = 350 || slicingInterval = 5000
--	Kid = 5 || L1D Acc = 35812, -- Miss = 17955, rate = 0.5014, -- PendHits = 0, rate = 0.0000-- ResFail = 45859, rate = 1.2805
Error Per = 50 || Flushes = 359 || slicingInterval = 5000
--	Kid = 6 || L1D Acc = 35610, -- Miss = 17826, rate = 0.5006, -- PendHits = 0, rate = 0.0000-- ResFail = 22455, rate = 0.6306
Error Per = 50 || Flushes = 356 || slicingInterval = 5000
--	Kid = 7 || L1D Acc = 38700, -- Miss = 37130, rate = 0.9594, -- PendHits = 0, rate = 0.0000-- ResFail = 0, rate = 0.0000
Error Per = 50 || Flushes = 742 || slicingInterval = 5000
--	Kid = 8 || L1D Acc = 38786, -- Miss = 36341, rate = 0.9370, -- PendHits = 0, rate = 0.0000-- ResFail = 0, rate = 0.0000
Error Per = 50 || Flushes = 726 || slicingInterval = 5000
--	Kid = 9 || L1D Acc = 25807, -- Miss = 24017, rate = 0.9306, -- PendHits = 0, rate = 0.0000-- ResFail = 0, rate = 0.0000
Error Per = 50 || Flushes = 480 || slicingInterval = 5000
--	Kid = 10 || L1D Acc = 37646, -- Miss = 32739, rate = 0.8697, -- PendHits = 0, rate = 0.0000-- ResFail = 500, rate = 0.0133
Error Per = 50 || Flushes = 654 || slicingInterval = 5000
--	Kid = 11 || L1D Acc = 23687, -- Miss = 16905, rate = 0.7137, -- PendHits = 0, rate = 0.0000-- ResFail = 7, rate = 0.0003
Error Per = 50 || Flushes = 338 || slicingInterval = 5000
--	Kid = 12 || L1D Acc = 42518, -- Miss = 21337, rate = 0.5018, -- PendHits = 0, rate = 0.0000-- ResFail = 25, rate = 0.0006
Error Per = 50 || Flushes = 426 || slicingInterval = 5000
--	Kid = 13 || L1D Acc = 54288, -- Miss = 27193, rate = 0.5009, -- PendHits = 0, rate = 0.0000-- ResFail = 0, rate = 0.0000
Error Per = 50 || Flushes = 543 || slicingInterval = 5000
--	Kid = 14 || L1D Acc = 0, -- Miss = 0, rate = -nan, -- PendHits = 0, rate = -nan-- ResFail = 0, rate = -nan
Error Per = 50 || Flushes = 0 || slicingInterval = 5000
--	Kid = 15 || L1D Acc = 0, -- Miss = 0, rate = -nan, -- PendHits = 0, rate = -nan-- ResFail = 0, rate = -nan
Error Per = 50 || Flushes = 0 || slicingInterval = 5000
--	Kid = 16 || L1D Acc = 42411, -- Miss = 35643, rate = 0.8404, -- PendHits = 3419, rate = 0.0806-- ResFail = 8045, rate = 0.1897
Error Per = 50 || Flushes = 712 || slicingInterval = 5000
--------------------------------------------------------------
L1D access stats (for 4'th SM) 
--	Kid = 0 || L1D Acc = 16392, -- Miss = 16392, rate = 1.0000, -- PendHits = 0, rate = 0.0000-- ResFail = 3, rate = 0.0002
Error Per = 50 || Flushes = 327 || slicingInterval = 5000
--	Kid = 1 || L1D Acc = 40320, -- Miss = 40320, rate = 1.0000, -- PendHits = 0, rate = 0.0000-- ResFail = 66, rate = 0.0016
Error Per = 50 || Flushes = 806 || slicingInterval = 5000
--	Kid = 2 || L1D Acc = 0, -- Miss = 0, rate = -nan, -- PendHits = 0, rate = -nan-- ResFail = 0, rate = -nan
Error Per = 50 || Flushes = 0 || slicingInterval = 5000
--	Kid = 3 || L1D Acc = 180938, -- Miss = 176688, rate = 0.9765, -- PendHits = 601, rate = 0.0033-- ResFail = 65212, rate = 0.3604
Error Per = 50 || Flushes = 3533 || slicingInterval = 5000
--	Kid = 4 || L1D Acc = 17536, -- Miss = 17536, rate = 1.0000, -- PendHits = 0, rate = 0.0000-- ResFail = 18619, rate = 1.0618
Error Per = 50 || Flushes = 350 || slicingInterval = 5000
--	Kid = 5 || L1D Acc = 34584, -- Miss = 17335, rate = 0.5012, -- PendHits = 0, rate = 0.0000-- ResFail = 45814, rate = 1.3247
Error Per = 50 || Flushes = 346 || slicingInterval = 5000
--	Kid = 6 || L1D Acc = 35647, -- Miss = 17844, rate = 0.5006, -- PendHits = 0, rate = 0.0000-- ResFail = 22165, rate = 0.6218
Error Per = 50 || Flushes = 356 || slicingInterval = 5000
--	Kid = 7 || L1D Acc = 38773, -- Miss = 36977, rate = 0.9537, -- PendHits = 0, rate = 0.0000-- ResFail = 12, rate = 0.0003
Error Per = 50 || Flushes = 739 || slicingInterval = 5000
--	Kid = 8 || L1D Acc = 38797, -- Miss = 37841, rate = 0.9754, -- PendHits = 0, rate = 0.0000-- ResFail = 42, rate = 0.0011
Error Per = 50 || Flushes = 756 || slicingInterval = 5000
--	Kid = 9 || L1D Acc = 45245, -- Miss = 42573, rate = 0.9409, -- PendHits = 0, rate = 0.0000-- ResFail = 312, rate = 0.0069
Error Per = 50 || Flushes = 851 || slicingInterval = 5000
--	Kid = 10 || L1D Acc = 37634, -- Miss = 32024, rate = 0.8509, -- PendHits = 0, rate = 0.0000-- ResFail = 318, rate = 0.0084
Error Per = 50 || Flushes = 640 || slicingInterval = 5000
--	Kid = 11 || L1D Acc = 23686, -- Miss = 13702, rate = 0.5785, -- PendHits = 0, rate = 0.0000-- ResFail = 0, rate = 0.0000
Error Per = 50 || Flushes = 274 || slicingInterval = 5000
--	Kid = 12 || L1D Acc = 42769, -- Miss = 21469, rate = 0.5020, -- PendHits = 0, rate = 0.0000-- ResFail = 0, rate = 0.0000
Error Per = 50 || Flushes = 429 || slicingInterval = 5000
--	Kid = 13 || L1D Acc = 0, -- Miss = 0, rate = -nan, -- PendHits = 0, rate = -nan-- ResFail = 0, rate = -nan
Error Per = 50 || Flushes = 0 || slicingInterval = 5000
--	Kid = 14 || L1D Acc = 106541, -- Miss = 53326, rate = 0.5005, -- PendHits = 0, rate = 0.0000-- ResFail = 2, rate = 0.0000
Error Per = 50 || Flushes = 1066 || slicingInterval = 5000
--	Kid = 15 || L1D Acc = 0, -- Miss = 0, rate = -nan, -- PendHits = 0, rate = -nan-- ResFail = 0, rate = -nan
Error Per = 50 || Flushes = 0 || slicingInterval = 5000
--	Kid = 16 || L1D Acc = 42415, -- Miss = 35847, rate = 0.8451, -- PendHits = 3340, rate = 0.0787-- ResFail = 8518, rate = 0.2008
Error Per = 50 || Flushes = 716 || slicingInterval = 5000
--------------------------------------------------------------
L1D access stats (for 5'th SM) 
--	Kid = 0 || L1D Acc = 16392, -- Miss = 16392, rate = 1.0000, -- PendHits = 0, rate = 0.0000-- ResFail = 3, rate = 0.0002
Error Per = 50 || Flushes = 327 || slicingInterval = 5000
--	Kid = 1 || L1D Acc = 40320, -- Miss = 40320, rate = 1.0000, -- PendHits = 0, rate = 0.0000-- ResFail = 0, rate = 0.0000
Error Per = 50 || Flushes = 806 || slicingInterval = 5000
--	Kid = 2 || L1D Acc = 0, -- Miss = 0, rate = -nan, -- PendHits = 0, rate = -nan-- ResFail = 0, rate = -nan
Error Per = 50 || Flushes = 0 || slicingInterval = 5000
--	Kid = 3 || L1D Acc = 175687, -- Miss = 171169, rate = 0.9743, -- PendHits = 419, rate = 0.0024-- ResFail = 57479, rate = 0.3272
Error Per = 50 || Flushes = 3423 || slicingInterval = 5000
--	Kid = 4 || L1D Acc = 17536, -- Miss = 17536, rate = 1.0000, -- PendHits = 0, rate = 0.0000-- ResFail = 16314, rate = 0.9303
Error Per = 50 || Flushes = 350 || slicingInterval = 5000
--	Kid = 5 || L1D Acc = 35191, -- Miss = 17643, rate = 0.5013, -- PendHits = 0, rate = 0.0000-- ResFail = 46478, rate = 1.3207
Error Per = 50 || Flushes = 352 || slicingInterval = 5000
--	Kid = 6 || L1D Acc = 32493, -- Miss = 16263, rate = 0.5005, -- PendHits = 0, rate = 0.0000-- ResFail = 21595, rate = 0.6646
Error Per = 50 || Flushes = 325 || slicingInterval = 5000
--	Kid = 7 || L1D Acc = 32394, -- Miss = 31306, rate = 0.9664, -- PendHits = 0, rate = 0.0000-- ResFail = 29, rate = 0.0009
Error Per = 50 || Flushes = 626 || slicingInterval = 5000
--	Kid = 8 || L1D Acc = 38683, -- Miss = 36992, rate = 0.9563, -- PendHits = 0, rate = 0.0000-- ResFail = 0, rate = 0.0000
Error Per = 50 || Flushes = 739 || slicingInterval = 5000
--	Kid = 9 || L1D Acc = 25834, -- Miss = 23989, rate = 0.9286, -- PendHits = 0, rate = 0.0000-- ResFail = 292, rate = 0.0113
Error Per = 50 || Flushes = 479 || slicingInterval = 5000
--	Kid = 10 || L1D Acc = 37521, -- Miss = 32156, rate = 0.8570, -- PendHits = 0, rate = 0.0000-- ResFail = 739, rate = 0.0197
Error Per = 50 || Flushes = 643 || slicingInterval = 5000
--	Kid = 11 || L1D Acc = 23568, -- Miss = 14993, rate = 0.6362, -- PendHits = 0, rate = 0.0000-- ResFail = 18, rate = 0.0008
Error Per = 50 || Flushes = 299 || slicingInterval = 5000
--	Kid = 12 || L1D Acc = 42493, -- Miss = 21346, rate = 0.5023, -- PendHits = 0, rate = 0.0000-- ResFail = 0, rate = 0.0000
Error Per = 50 || Flushes = 426 || slicingInterval = 5000
--	Kid = 13 || L1D Acc = 0, -- Miss = 0, rate = -nan, -- PendHits = 0, rate = -nan-- ResFail = 0, rate = -nan
Error Per = 50 || Flushes = 0 || slicingInterval = 5000
--	Kid = 14 || L1D Acc = 106534, -- Miss = 53319, rate = 0.5005, -- PendHits = 0, rate = 0.0000-- ResFail = 0, rate = 0.0000
Error Per = 50 || Flushes = 1066 || slicingInterval = 5000
--	Kid = 15 || L1D Acc = 0, -- Miss = 0, rate = -nan, -- PendHits = 0, rate = -nan-- ResFail = 0, rate = -nan
Error Per = 50 || Flushes = 0 || slicingInterval = 5000
--	Kid = 16 || L1D Acc = 42386, -- Miss = 35788, rate = 0.8443, -- PendHits = 3348, rate = 0.0790-- ResFail = 8078, rate = 0.1906
Error Per = 50 || Flushes = 715 || slicingInterval = 5000
--------------------------------------------------------------
L1D access stats (for 6'th SM) 
--	Kid = 0 || L1D Acc = 16392, -- Miss = 16392, rate = 1.0000, -- PendHits = 0, rate = 0.0000-- ResFail = 3, rate = 0.0002
Error Per = 50 || Flushes = 327 || slicingInterval = 5000
--	Kid = 1 || L1D Acc = 38016, -- Miss = 38016, rate = 1.0000, -- PendHits = 0, rate = 0.0000-- ResFail = 27, rate = 0.0007
Error Per = 50 || Flushes = 760 || slicingInterval = 5000
--	Kid = 2 || L1D Acc = 0, -- Miss = 0, rate = -nan, -- PendHits = 0, rate = -nan-- ResFail = 0, rate = -nan
Error Per = 50 || Flushes = 0 || slicingInterval = 5000
--	Kid = 3 || L1D Acc = 180953, -- Miss = 176514, rate = 0.9755, -- PendHits = 411, rate = 0.0023-- ResFail = 66927, rate = 0.3699
Error Per = 50 || Flushes = 3530 || slicingInterval = 5000
--	Kid = 4 || L1D Acc = 17536, -- Miss = 17536, rate = 1.0000, -- PendHits = 0, rate = 0.0000-- ResFail = 17123, rate = 0.9764
Error Per = 50 || Flushes = 350 || slicingInterval = 5000
--	Kid = 5 || L1D Acc = 35178, -- Miss = 17636, rate = 0.5013, -- PendHits = 0, rate = 0.0000-- ResFail = 46276, rate = 1.3155
Error Per = 50 || Flushes = 352 || slicingInterval = 5000
--	Kid = 6 || L1D Acc = 34139, -- Miss = 17090, rate = 0.5006, -- PendHits = 0, rate = 0.0000-- ResFail = 19981, rate = 0.5853
Error Per = 50 || Flushes = 341 || slicingInterval = 5000
--	Kid = 7 || L1D Acc = 38694, -- Miss = 37295, rate = 0.9638, -- PendHits = 0, rate = 0.0000-- ResFail = 3, rate = 0.0001
Error Per = 50 || Flushes = 745 || slicingInterval = 5000
--	Kid = 8 || L1D Acc = 35258, -- Miss = 33122, rate = 0.9394, -- PendHits = 0, rate = 0.0000-- ResFail = 0, rate = 0.0000
Error Per = 50 || Flushes = 662 || slicingInterval = 5000
--	Kid = 9 || L1D Acc = 25760, -- Miss = 24067, rate = 0.9343, -- PendHits = 0, rate = 0.0000-- ResFail = 430, rate = 0.0167
Error Per = 50 || Flushes = 481 || slicingInterval = 5000
--	Kid = 10 || L1D Acc = 37614, -- Miss = 31035, rate = 0.8251, -- PendHits = 0, rate = 0.0000-- ResFail = 655, rate = 0.0174
Error Per = 50 || Flushes = 620 || slicingInterval = 5000
--	Kid = 11 || L1D Acc = 23680, -- Miss = 17489, rate = 0.7386, -- PendHits = 0, rate = 0.0000-- ResFail = 20, rate = 0.0008
Error Per = 50 || Flushes = 349 || slicingInterval = 5000
--	Kid = 12 || L1D Acc = 42783, -- Miss = 21471, rate = 0.5019, -- PendHits = 0, rate = 0.0000-- ResFail = 6, rate = 0.0001
Error Per = 50 || Flushes = 429 || slicingInterval = 5000
--	Kid = 13 || L1D Acc = 0, -- Miss = 0, rate = -nan, -- PendHits = 0, rate = -nan-- ResFail = 0, rate = -nan
Error Per = 50 || Flushes = 0 || slicingInterval = 5000
--	Kid = 14 || L1D Acc = 106536, -- Miss = 53327, rate = 0.5006, -- PendHits = 0, rate = 0.0000-- ResFail = 7, rate = 0.0001
Error Per = 50 || Flushes = 1066 || slicingInterval = 5000
--	Kid = 15 || L1D Acc = 0, -- Miss = 0, rate = -nan, -- PendHits = 0, rate = -nan-- ResFail = 0, rate = -nan
Error Per = 50 || Flushes = 0 || slicingInterval = 5000
--	Kid = 16 || L1D Acc = 42595, -- Miss = 35936, rate = 0.8437, -- PendHits = 3375, rate = 0.0792-- ResFail = 8396, rate = 0.1971
Error Per = 50 || Flushes = 718 || slicingInterval = 5000
--------------------------------------------------------------
L1D access stats (for 7'th SM) 
--	Kid = 0 || L1D Acc = 16392, -- Miss = 16392, rate = 1.0000, -- PendHits = 0, rate = 0.0000-- ResFail = 3, rate = 0.0002
Error Per = 50 || Flushes = 327 || slicingInterval = 5000
--	Kid = 1 || L1D Acc = 40320, -- Miss = 40320, rate = 1.0000, -- PendHits = 0, rate = 0.0000-- ResFail = 53, rate = 0.0013
Error Per = 50 || Flushes = 806 || slicingInterval = 5000
--	Kid = 2 || L1D Acc = 0, -- Miss = 0, rate = -nan, -- PendHits = 0, rate = -nan-- ResFail = 0, rate = -nan
Error Per = 50 || Flushes = 0 || slicingInterval = 5000
--	Kid = 3 || L1D Acc = 175589, -- Miss = 171204, rate = 0.9750, -- PendHits = 575, rate = 0.0033-- ResFail = 57063, rate = 0.3250
Error Per = 50 || Flushes = 3424 || slicingInterval = 5000
--	Kid = 4 || L1D Acc = 17920, -- Miss = 17920, rate = 1.0000, -- PendHits = 0, rate = 0.0000-- ResFail = 16913, rate = 0.9438
Error Per = 50 || Flushes = 358 || slicingInterval = 5000
--	Kid = 5 || L1D Acc = 34017, -- Miss = 17052, rate = 0.5013, -- PendHits = 0, rate = 0.0000-- ResFail = 45090, rate = 1.3255
Error Per = 50 || Flushes = 341 || slicingInterval = 5000
--	Kid = 6 || L1D Acc = 34789, -- Miss = 17413, rate = 0.5005, -- PendHits = 0, rate = 0.0000-- ResFail = 19106, rate = 0.5492
Error Per = 50 || Flushes = 348 || slicingInterval = 5000
--	Kid = 7 || L1D Acc = 38686, -- Miss = 37211, rate = 0.9619, -- PendHits = 0, rate = 0.0000-- ResFail = 0, rate = 0.0000
Error Per = 50 || Flushes = 744 || slicingInterval = 5000
--	Kid = 8 || L1D Acc = 29013, -- Miss = 26523, rate = 0.9142, -- PendHits = 0, rate = 0.0000-- ResFail = 0, rate = 0.0000
Error Per = 50 || Flushes = 530 || slicingInterval = 5000
--	Kid = 9 || L1D Acc = 25878, -- Miss = 23834, rate = 0.9210, -- PendHits = 0, rate = 0.0000-- ResFail = 4, rate = 0.0002
Error Per = 50 || Flushes = 476 || slicingInterval = 5000
--	Kid = 10 || L1D Acc = 37614, -- Miss = 30870, rate = 0.8207, -- PendHits = 0, rate = 0.0000-- ResFail = 1287, rate = 0.0342
Error Per = 50 || Flushes = 617 || slicingInterval = 5000
--	Kid = 11 || L1D Acc = 23691, -- Miss = 11970, rate = 0.5053, -- PendHits = 0, rate = 0.0000-- ResFail = 0, rate = 0.0000
Error Per = 50 || Flushes = 239 || slicingInterval = 5000
--	Kid = 12 || L1D Acc = 42510, -- Miss = 21352, rate = 0.5023, -- PendHits = 0, rate = 0.0000-- ResFail = 5, rate = 0.0001
Error Per = 50 || Flushes = 427 || slicingInterval = 5000
--	Kid = 13 || L1D Acc = 0, -- Miss = 0, rate = -nan, -- PendHits = 0, rate = -nan-- ResFail = 0, rate = -nan
Error Per = 50 || Flushes = 0 || slicingInterval = 5000
--	Kid = 14 || L1D Acc = 106542, -- Miss = 53326, rate = 0.5005, -- PendHits = 0, rate = 0.0000-- ResFail = 0, rate = 0.0000
Error Per = 50 || Flushes = 1066 || slicingInterval = 5000
--	Kid = 15 || L1D Acc = 0, -- Miss = 0, rate = -nan, -- PendHits = 0, rate = -nan-- ResFail = 0, rate = -nan
Error Per = 50 || Flushes = 0 || slicingInterval = 5000
--	Kid = 16 || L1D Acc = 42746, -- Miss = 35979, rate = 0.8417, -- PendHits = 3438, rate = 0.0804-- ResFail = 8617, rate = 0.2016
Error Per = 50 || Flushes = 719 || slicingInterval = 5000
--------------------------------------------------------------
L1D access stats (for 8'th SM) 
--	Kid = 0 || L1D Acc = 16392, -- Miss = 16392, rate = 1.0000, -- PendHits = 0, rate = 0.0000-- ResFail = 3, rate = 0.0002
Error Per = 50 || Flushes = 327 || slicingInterval = 5000
--	Kid = 1 || L1D Acc = 38016, -- Miss = 38016, rate = 1.0000, -- PendHits = 0, rate = 0.0000-- ResFail = 66, rate = 0.0017
Error Per = 50 || Flushes = 760 || slicingInterval = 5000
--	Kid = 2 || L1D Acc = 32784, -- Miss = 16400, rate = 0.5002, -- PendHits = 16384, rate = 0.4998-- ResFail = 22, rate = 0.0007
Error Per = 50 || Flushes = 328 || slicingInterval = 5000
--	Kid = 3 || L1D Acc = 186284, -- Miss = 181991, rate = 0.9770, -- PendHits = 462, rate = 0.0025-- ResFail = 75161, rate = 0.4035
Error Per = 50 || Flushes = 3639 || slicingInterval = 5000
--	Kid = 4 || L1D Acc = 17536, -- Miss = 17536, rate = 1.0000, -- PendHits = 0, rate = 0.0000-- ResFail = 17396, rate = 0.9920
Error Per = 50 || Flushes = 350 || slicingInterval = 5000
--	Kid = 5 || L1D Acc = 34935, -- Miss = 17509, rate = 0.5012, -- PendHits = 0, rate = 0.0000-- ResFail = 46791, rate = 1.3394
Error Per = 50 || Flushes = 350 || slicingInterval = 5000
--	Kid = 6 || L1D Acc = 32330, -- Miss = 16185, rate = 0.5006, -- PendHits = 0, rate = 0.0000-- ResFail = 22705, rate = 0.7023
Error Per = 50 || Flushes = 323 || slicingInterval = 5000
--	Kid = 7 || L1D Acc = 32361, -- Miss = 31314, rate = 0.9676, -- PendHits = 0, rate = 0.0000-- ResFail = 0, rate = 0.0000
Error Per = 50 || Flushes = 626 || slicingInterval = 5000
--	Kid = 8 || L1D Acc = 38717, -- Miss = 34218, rate = 0.8838, -- PendHits = 0, rate = 0.0000-- ResFail = 0, rate = 0.0000
Error Per = 50 || Flushes = 684 || slicingInterval = 5000
--	Kid = 9 || L1D Acc = 32328, -- Miss = 30656, rate = 0.9483, -- PendHits = 0, rate = 0.0000-- ResFail = 56, rate = 0.0017
Error Per = 50 || Flushes = 613 || slicingInterval = 5000
--	Kid = 10 || L1D Acc = 33738, -- Miss = 27099, rate = 0.8032, -- PendHits = 0, rate = 0.0000-- ResFail = 426, rate = 0.0126
Error Per = 50 || Flushes = 541 || slicingInterval = 5000
--	Kid = 11 || L1D Acc = 23686, -- Miss = 11950, rate = 0.5045, -- PendHits = 0, rate = 0.0000-- ResFail = 0, rate = 0.0000
Error Per = 50 || Flushes = 239 || slicingInterval = 5000
--	Kid = 12 || L1D Acc = 42518, -- Miss = 21341, rate = 0.5019, -- PendHits = 0, rate = 0.0000-- ResFail = 0, rate = 0.0000
Error Per = 50 || Flushes = 426 || slicingInterval = 5000
--	Kid = 13 || L1D Acc = 0, -- Miss = 0, rate = -nan, -- PendHits = 0, rate = -nan-- ResFail = 0, rate = -nan
Error Per = 50 || Flushes = 0 || slicingInterval = 5000
--	Kid = 14 || L1D Acc = 106536, -- Miss = 53322, rate = 0.5005, -- PendHits = 0, rate = 0.0000-- ResFail = 0, rate = 0.0000
Error Per = 50 || Flushes = 1066 || slicingInterval = 5000
--	Kid = 15 || L1D Acc = 0, -- Miss = 0, rate = -nan, -- PendHits = 0, rate = -nan-- ResFail = 0, rate = -nan
Error Per = 50 || Flushes = 0 || slicingInterval = 5000
--	Kid = 16 || L1D Acc = 42570, -- Miss = 35935, rate = 0.8441, -- PendHits = 3357, rate = 0.0789-- ResFail = 8141, rate = 0.1912
Error Per = 50 || Flushes = 718 || slicingInterval = 5000
--------------------------------------------------------------
L1D access stats (for 9'th SM) 
--	Kid = 0 || L1D Acc = 16392, -- Miss = 16392, rate = 1.0000, -- PendHits = 0, rate = 0.0000-- ResFail = 3, rate = 0.0002
Error Per = 50 || Flushes = 327 || slicingInterval = 5000
--	Kid = 1 || L1D Acc = 39168, -- Miss = 39168, rate = 1.0000, -- PendHits = 0, rate = 0.0000-- ResFail = 62, rate = 0.0016
Error Per = 50 || Flushes = 783 || slicingInterval = 5000
--	Kid = 2 || L1D Acc = 32784, -- Miss = 16400, rate = 0.5002, -- PendHits = 16384, rate = 0.4998-- ResFail = 22, rate = 0.0007
Error Per = 50 || Flushes = 328 || slicingInterval = 5000
--	Kid = 3 || L1D Acc = 170275, -- Miss = 166696, rate = 0.9790, -- PendHits = 369, rate = 0.0022-- ResFail = 57343, rate = 0.3368
Error Per = 50 || Flushes = 3333 || slicingInterval = 5000
--	Kid = 4 || L1D Acc = 17536, -- Miss = 17536, rate = 1.0000, -- PendHits = 0, rate = 0.0000-- ResFail = 16502, rate = 0.9410
Error Per = 50 || Flushes = 350 || slicingInterval = 5000
--	Kid = 5 || L1D Acc = 34692, -- Miss = 17388, rate = 0.5012, -- PendHits = 0, rate = 0.0000-- ResFail = 46068, rate = 1.3279
Error Per = 50 || Flushes = 347 || slicingInterval = 5000
--	Kid = 6 || L1D Acc = 35669, -- Miss = 17855, rate = 0.5006, -- PendHits = 0, rate = 0.0000-- ResFail = 24681, rate = 0.6919
Error Per = 50 || Flushes = 357 || slicingInterval = 5000
--	Kid = 7 || L1D Acc = 38687, -- Miss = 37487, rate = 0.9690, -- PendHits = 0, rate = 0.0000-- ResFail = 42, rate = 0.0011
Error Per = 50 || Flushes = 749 || slicingInterval = 5000
--	Kid = 8 || L1D Acc = 38766, -- Miss = 37045, rate = 0.9556, -- PendHits = 0, rate = 0.0000-- ResFail = 11, rate = 0.0003
Error Per = 50 || Flushes = 740 || slicingInterval = 5000
--	Kid = 9 || L1D Acc = 51547, -- Miss = 49193, rate = 0.9543, -- PendHits = 0, rate = 0.0000-- ResFail = 268, rate = 0.0052
Error Per = 50 || Flushes = 983 || slicingInterval = 5000
--	Kid = 10 || L1D Acc = 25109, -- Miss = 17064, rate = 0.6796, -- PendHits = 0, rate = 0.0000-- ResFail = 0, rate = 0.0000
Error Per = 50 || Flushes = 341 || slicingInterval = 5000
--	Kid = 11 || L1D Acc = 47377, -- Miss = 25291, rate = 0.5338, -- PendHits = 0, rate = 0.0000-- ResFail = 159, rate = 0.0034
Error Per = 50 || Flushes = 505 || slicingInterval = 5000
--	Kid = 12 || L1D Acc = 42761, -- Miss = 21469, rate = 0.5021, -- PendHits = 0, rate = 0.0000-- ResFail = 12, rate = 0.0003
Error Per = 50 || Flushes = 429 || slicingInterval = 5000
--	Kid = 13 || L1D Acc = 0, -- Miss = 0, rate = -nan, -- PendHits = 0, rate = -nan-- ResFail = 0, rate = -nan
Error Per = 50 || Flushes = 0 || slicingInterval = 5000
--	Kid = 14 || L1D Acc = 106537, -- Miss = 53323, rate = 0.5005, -- PendHits = 0, rate = 0.0000-- ResFail = 4, rate = 0.0000
Error Per = 50 || Flushes = 1066 || slicingInterval = 5000
--	Kid = 15 || L1D Acc = 0, -- Miss = 0, rate = -nan, -- PendHits = 0, rate = -nan-- ResFail = 0, rate = -nan
Error Per = 50 || Flushes = 0 || slicingInterval = 5000
--	Kid = 16 || L1D Acc = 42719, -- Miss = 36093, rate = 0.8449, -- PendHits = 3328, rate = 0.0779-- ResFail = 9242, rate = 0.2163
Error Per = 50 || Flushes = 721 || slicingInterval = 5000
--------------------------------------------------------------
L1D access stats (for 10'th SM) 
--	Kid = 0 || L1D Acc = 16392, -- Miss = 16392, rate = 1.0000, -- PendHits = 0, rate = 0.0000-- ResFail = 3, rate = 0.0002
Error Per = 50 || Flushes = 327 || slicingInterval = 5000
--	Kid = 1 || L1D Acc = 36864, -- Miss = 36864, rate = 1.0000, -- PendHits = 0, rate = 0.0000-- ResFail = 58, rate = 0.0016
Error Per = 50 || Flushes = 737 || slicingInterval = 5000
--	Kid = 2 || L1D Acc = 32784, -- Miss = 16400, rate = 0.5002, -- PendHits = 16384, rate = 0.4998-- ResFail = 20, rate = 0.0006
Error Per = 50 || Flushes = 328 || slicingInterval = 5000
--	Kid = 3 || L1D Acc = 186265, -- Miss = 182045, rate = 0.9773, -- PendHits = 528, rate = 0.0028-- ResFail = 62753, rate = 0.3369
Error Per = 50 || Flushes = 3640 || slicingInterval = 5000
--	Kid = 4 || L1D Acc = 17536, -- Miss = 17536, rate = 1.0000, -- PendHits = 0, rate = 0.0000-- ResFail = 18019, rate = 1.0275
Error Per = 50 || Flushes = 350 || slicingInterval = 5000
--	Kid = 5 || L1D Acc = 35434, -- Miss = 17758, rate = 0.5012, -- PendHits = 0, rate = 0.0000-- ResFail = 47298, rate = 1.3348
Error Per = 50 || Flushes = 355 || slicingInterval = 5000
--	Kid = 6 || L1D Acc = 33977, -- Miss = 17006, rate = 0.5005, -- PendHits = 0, rate = 0.0000-- ResFail = 19054, rate = 0.5608
Error Per = 50 || Flushes = 340 || slicingInterval = 5000
--	Kid = 7 || L1D Acc = 33753, -- Miss = 31502, rate = 0.9333, -- PendHits = 0, rate = 0.0000-- ResFail = 0, rate = 0.0000
Error Per = 50 || Flushes = 630 || slicingInterval = 5000
--	Kid = 8 || L1D Acc = 35542, -- Miss = 33067, rate = 0.9304, -- PendHits = 0, rate = 0.0000-- ResFail = 1, rate = 0.0000
Error Per = 50 || Flushes = 661 || slicingInterval = 5000
--	Kid = 9 || L1D Acc = 51662, -- Miss = 47934, rate = 0.9278, -- PendHits = 0, rate = 0.0000-- ResFail = 144, rate = 0.0028
Error Per = 50 || Flushes = 958 || slicingInterval = 5000
--	Kid = 10 || L1D Acc = 24962, -- Miss = 15675, rate = 0.6280, -- PendHits = 0, rate = 0.0000-- ResFail = 67, rate = 0.0027
Error Per = 50 || Flushes = 313 || slicingInterval = 5000
--	Kid = 11 || L1D Acc = 47381, -- Miss = 24117, rate = 0.5090, -- PendHits = 0, rate = 0.0000-- ResFail = 243, rate = 0.0051
Error Per = 50 || Flushes = 482 || slicingInterval = 5000
--	Kid = 12 || L1D Acc = 42512, -- Miss = 21350, rate = 0.5022, -- PendHits = 0, rate = 0.0000-- ResFail = 12, rate = 0.0003
Error Per = 50 || Flushes = 427 || slicingInterval = 5000
--	Kid = 13 || L1D Acc = 0, -- Miss = 0, rate = -nan, -- PendHits = 0, rate = -nan-- ResFail = 0, rate = -nan
Error Per = 50 || Flushes = 0 || slicingInterval = 5000
--	Kid = 14 || L1D Acc = 106529, -- Miss = 53322, rate = 0.5005, -- PendHits = 0, rate = 0.0000-- ResFail = 0, rate = 0.0000
Error Per = 50 || Flushes = 1066 || slicingInterval = 5000
--	Kid = 15 || L1D Acc = 0, -- Miss = 0, rate = -nan, -- PendHits = 0, rate = -nan-- ResFail = 0, rate = -nan
Error Per = 50 || Flushes = 0 || slicingInterval = 5000
--	Kid = 16 || L1D Acc = 41949, -- Miss = 35349, rate = 0.8427, -- PendHits = 3328, rate = 0.0793-- ResFail = 8071, rate = 0.1924
Error Per = 50 || Flushes = 706 || slicingInterval = 5000
--------------------------------------------------------------
L1D access stats (for 11'th SM) 
--	Kid = 0 || L1D Acc = 16392, -- Miss = 16392, rate = 1.0000, -- PendHits = 0, rate = 0.0000-- ResFail = 3, rate = 0.0002
Error Per = 50 || Flushes = 327 || slicingInterval = 5000
--	Kid = 1 || L1D Acc = 39168, -- Miss = 39168, rate = 1.0000, -- PendHits = 0, rate = 0.0000-- ResFail = 30, rate = 0.0008
Error Per = 50 || Flushes = 783 || slicingInterval = 5000
--	Kid = 2 || L1D Acc = 32784, -- Miss = 16400, rate = 0.5002, -- PendHits = 16384, rate = 0.4998-- ResFail = 23, rate = 0.0007
Error Per = 50 || Flushes = 328 || slicingInterval = 5000
--	Kid = 3 || L1D Acc = 175658, -- Miss = 171237, rate = 0.9748, -- PendHits = 435, rate = 0.0025-- ResFail = 54006, rate = 0.3074
Error Per = 50 || Flushes = 3424 || slicingInterval = 5000
--	Kid = 4 || L1D Acc = 17536, -- Miss = 17536, rate = 1.0000, -- PendHits = 0, rate = 0.0000-- ResFail = 16582, rate = 0.9456
Error Per = 50 || Flushes = 350 || slicingInterval = 5000
--	Kid = 5 || L1D Acc = 34820, -- Miss = 17449, rate = 0.5011, -- PendHits = 0, rate = 0.0000-- ResFail = 45682, rate = 1.3119
Error Per = 50 || Flushes = 348 || slicingInterval = 5000
--	Kid = 6 || L1D Acc = 32586, -- Miss = 16311, rate = 0.5006, -- PendHits = 0, rate = 0.0000-- ResFail = 21079, rate = 0.6469
Error Per = 50 || Flushes = 326 || slicingInterval = 5000
--	Kid = 7 || L1D Acc = 38753, -- Miss = 35971, rate = 0.9282, -- PendHits = 0, rate = 0.0000-- ResFail = 0, rate = 0.0000
Error Per = 50 || Flushes = 719 || slicingInterval = 5000
--	Kid = 8 || L1D Acc = 25742, -- Miss = 25009, rate = 0.9715, -- PendHits = 0, rate = 0.0000-- ResFail = 0, rate = 0.0000
Error Per = 50 || Flushes = 500 || slicingInterval = 5000
--	Kid = 9 || L1D Acc = 25829, -- Miss = 24348, rate = 0.9427, -- PendHits = 0, rate = 0.0000-- ResFail = 352, rate = 0.0136
Error Per = 50 || Flushes = 486 || slicingInterval = 5000
--	Kid = 10 || L1D Acc = 25099, -- Miss = 14744, rate = 0.5874, -- PendHits = 0, rate = 0.0000-- ResFail = 0, rate = 0.0000
Error Per = 50 || Flushes = 294 || slicingInterval = 5000
--	Kid = 11 || L1D Acc = 47373, -- Miss = 26616, rate = 0.5618, -- PendHits = 0, rate = 0.0000-- ResFail = 148, rate = 0.0031
Error Per = 50 || Flushes = 532 || slicingInterval = 5000
--	Kid = 12 || L1D Acc = 42761, -- Miss = 21460, rate = 0.5019, -- PendHits = 0, rate = 0.0000-- ResFail = 19, rate = 0.0004
Error Per = 50 || Flushes = 429 || slicingInterval = 5000
--	Kid = 13 || L1D Acc = 0, -- Miss = 0, rate = -nan, -- PendHits = 0, rate = -nan-- ResFail = 0, rate = -nan
Error Per = 50 || Flushes = 0 || slicingInterval = 5000
--	Kid = 14 || L1D Acc = 106527, -- Miss = 53318, rate = 0.5005, -- PendHits = 0, rate = 0.0000-- ResFail = 0, rate = 0.0000
Error Per = 50 || Flushes = 1066 || slicingInterval = 5000
--	Kid = 15 || L1D Acc = 0, -- Miss = 0, rate = -nan, -- PendHits = 0, rate = -nan-- ResFail = 0, rate = -nan
Error Per = 50 || Flushes = 0 || slicingInterval = 5000
--	Kid = 16 || L1D Acc = 43237, -- Miss = 36342, rate = 0.8405, -- PendHits = 3425, rate = 0.0792-- ResFail = 7755, rate = 0.1794
Error Per = 50 || Flushes = 726 || slicingInterval = 5000
--------------------------------------------------------------
L1D access stats (for 12'th SM) 
--	Kid = 0 || L1D Acc = 16388, -- Miss = 16388, rate = 1.0000, -- PendHits = 0, rate = 0.0000-- ResFail = 3, rate = 0.0002
Error Per = 50 || Flushes = 327 || slicingInterval = 5000
--	Kid = 1 || L1D Acc = 38016, -- Miss = 38016, rate = 1.0000, -- PendHits = 0, rate = 0.0000-- ResFail = 27, rate = 0.0007
Error Per = 50 || Flushes = 760 || slicingInterval = 5000
--	Kid = 2 || L1D Acc = 32784, -- Miss = 16400, rate = 0.5002, -- PendHits = 16384, rate = 0.4998-- ResFail = 22, rate = 0.0007
Error Per = 50 || Flushes = 328 || slicingInterval = 5000
--	Kid = 3 || L1D Acc = 191639, -- Miss = 187053, rate = 0.9761, -- PendHits = 701, rate = 0.0037-- ResFail = 80218, rate = 0.4186
Error Per = 50 || Flushes = 3741 || slicingInterval = 5000
--	Kid = 4 || L1D Acc = 17664, -- Miss = 17664, rate = 1.0000, -- PendHits = 0, rate = 0.0000-- ResFail = 17754, rate = 1.0051
Error Per = 50 || Flushes = 353 || slicingInterval = 5000
--	Kid = 5 || L1D Acc = 36310, -- Miss = 18196, rate = 0.5011, -- PendHits = 0, rate = 0.0000-- ResFail = 47542, rate = 1.3093
Error Per = 50 || Flushes = 363 || slicingInterval = 5000
--	Kid = 6 || L1D Acc = 35679, -- Miss = 17859, rate = 0.5005, -- PendHits = 0, rate = 0.0000-- ResFail = 24641, rate = 0.6906
Error Per = 50 || Flushes = 357 || slicingInterval = 5000
--	Kid = 7 || L1D Acc = 35652, -- Miss = 32362, rate = 0.9077, -- PendHits = 0, rate = 0.0000-- ResFail = 0, rate = 0.0000
Error Per = 50 || Flushes = 647 || slicingInterval = 5000
--	Kid = 8 || L1D Acc = 35543, -- Miss = 33006, rate = 0.9286, -- PendHits = 0, rate = 0.0000-- ResFail = 0, rate = 0.0000
Error Per = 50 || Flushes = 660 || slicingInterval = 5000
--	Kid = 9 || L1D Acc = 25808, -- Miss = 24057, rate = 0.9322, -- PendHits = 0, rate = 0.0000-- ResFail = 287, rate = 0.0111
Error Per = 50 || Flushes = 481 || slicingInterval = 5000
--	Kid = 10 || L1D Acc = 25093, -- Miss = 17239, rate = 0.6870, -- PendHits = 0, rate = 0.0000-- ResFail = 16, rate = 0.0006
Error Per = 50 || Flushes = 344 || slicingInterval = 5000
--	Kid = 11 || L1D Acc = 47389, -- Miss = 25436, rate = 0.5367, -- PendHits = 0, rate = 0.0000-- ResFail = 14, rate = 0.0003
Error Per = 50 || Flushes = 508 || slicingInterval = 5000
--	Kid = 12 || L1D Acc = 42525, -- Miss = 21363, rate = 0.5024, -- PendHits = 0, rate = 0.0000-- ResFail = 14, rate = 0.0003
Error Per = 50 || Flushes = 427 || slicingInterval = 5000
--	Kid = 13 || L1D Acc = 0, -- Miss = 0, rate = -nan, -- PendHits = 0, rate = -nan-- ResFail = 0, rate = -nan
Error Per = 50 || Flushes = 0 || slicingInterval = 5000
--	Kid = 14 || L1D Acc = 106542, -- Miss = 53321, rate = 0.5005, -- PendHits = 0, rate = 0.0000-- ResFail = 1, rate = 0.0000
Error Per = 50 || Flushes = 1066 || slicingInterval = 5000
--	Kid = 15 || L1D Acc = 0, -- Miss = 0, rate = -nan, -- PendHits = 0, rate = -nan-- ResFail = 0, rate = -nan
Error Per = 50 || Flushes = 0 || slicingInterval = 5000
--	Kid = 16 || L1D Acc = 42739, -- Miss = 36068, rate = 0.8439, -- PendHits = 3401, rate = 0.0796-- ResFail = 7833, rate = 0.1833
Error Per = 50 || Flushes = 721 || slicingInterval = 5000
--------------------------------------------------------------
L1D access stats (for 13'th SM) 
--	Kid = 0 || L1D Acc = 16380, -- Miss = 16380, rate = 1.0000, -- PendHits = 0, rate = 0.0000-- ResFail = 3, rate = 0.0002
Error Per = 50 || Flushes = 327 || slicingInterval = 5000
--	Kid = 1 || L1D Acc = 40320, -- Miss = 40320, rate = 1.0000, -- PendHits = 0, rate = 0.0000-- ResFail = 25, rate = 0.0006
Error Per = 50 || Flushes = 806 || slicingInterval = 5000
--	Kid = 2 || L1D Acc = 32784, -- Miss = 16400, rate = 0.5002, -- PendHits = 16384, rate = 0.4998-- ResFail = 22, rate = 0.0007
Error Per = 50 || Flushes = 328 || slicingInterval = 5000
--	Kid = 3 || L1D Acc = 180960, -- Miss = 176503, rate = 0.9754, -- PendHits = 417, rate = 0.0023-- ResFail = 63975, rate = 0.3535
Error Per = 50 || Flushes = 3530 || slicingInterval = 5000
--	Kid = 4 || L1D Acc = 17536, -- Miss = 17536, rate = 1.0000, -- PendHits = 0, rate = 0.0000-- ResFail = 17674, rate = 1.0079
Error Per = 50 || Flushes = 350 || slicingInterval = 5000
--	Kid = 5 || L1D Acc = 36000, -- Miss = 18051, rate = 0.5014, -- PendHits = 0, rate = 0.0000-- ResFail = 46449, rate = 1.2902
Error Per = 50 || Flushes = 361 || slicingInterval = 5000
--	Kid = 6 || L1D Acc = 36483, -- Miss = 18266, rate = 0.5007, -- PendHits = 0, rate = 0.0000-- ResFail = 20679, rate = 0.5668
Error Per = 50 || Flushes = 365 || slicingInterval = 5000
--	Kid = 7 || L1D Acc = 32266, -- Miss = 31070, rate = 0.9629, -- PendHits = 0, rate = 0.0000-- ResFail = 73, rate = 0.0023
Error Per = 50 || Flushes = 621 || slicingInterval = 5000
--	Kid = 8 || L1D Acc = 25845, -- Miss = 24862, rate = 0.9620, -- PendHits = 0, rate = 0.0000-- ResFail = 0, rate = 0.0000
Error Per = 50 || Flushes = 497 || slicingInterval = 5000
--	Kid = 9 || L1D Acc = 51590, -- Miss = 48649, rate = 0.9430, -- PendHits = 0, rate = 0.0000-- ResFail = 0, rate = 0.0000
Error Per = 50 || Flushes = 972 || slicingInterval = 5000
--	Kid = 10 || L1D Acc = 25110, -- Miss = 15089, rate = 0.6009, -- PendHits = 0, rate = 0.0000-- ResFail = 13, rate = 0.0005
Error Per = 50 || Flushes = 301 || slicingInterval = 5000
--	Kid = 11 || L1D Acc = 47372, -- Miss = 25184, rate = 0.5316, -- PendHits = 0, rate = 0.0000-- ResFail = 228, rate = 0.0048
Error Per = 50 || Flushes = 503 || slicingInterval = 5000
--	Kid = 12 || L1D Acc = 42497, -- Miss = 21336, rate = 0.5021, -- PendHits = 0, rate = 0.0000-- ResFail = 4, rate = 0.0001
Error Per = 50 || Flushes = 426 || slicingInterval = 5000
--	Kid = 13 || L1D Acc = 0, -- Miss = 0, rate = -nan, -- PendHits = 0, rate = -nan-- ResFail = 0, rate = -nan
Error Per = 50 || Flushes = 0 || slicingInterval = 5000
--	Kid = 14 || L1D Acc = 90139, -- Miss = 45110, rate = 0.5004, -- PendHits = 0, rate = 0.0000-- ResFail = 7, rate = 0.0001
Error Per = 50 || Flushes = 902 || slicingInterval = 5000
--	Kid = 15 || L1D Acc = 0, -- Miss = 0, rate = -nan, -- PendHits = 0, rate = -nan-- ResFail = 0, rate = -nan
Error Per = 50 || Flushes = 0 || slicingInterval = 5000
--	Kid = 16 || L1D Acc = 42271, -- Miss = 35666, rate = 0.8437, -- PendHits = 3334, rate = 0.0789-- ResFail = 7513, rate = 0.1777
Error Per = 50 || Flushes = 713 || slicingInterval = 5000
--------------------------------------------------------------
L1D access stats (for 14'th SM) 
--	Kid = 0 || L1D Acc = 16380, -- Miss = 16380, rate = 1.0000, -- PendHits = 0, rate = 0.0000-- ResFail = 3, rate = 0.0002
Error Per = 50 || Flushes = 327 || slicingInterval = 5000
--	Kid = 1 || L1D Acc = 39168, -- Miss = 39168, rate = 1.0000, -- PendHits = 0, rate = 0.0000-- ResFail = 39, rate = 0.0010
Error Per = 50 || Flushes = 783 || slicingInterval = 5000
--	Kid = 2 || L1D Acc = 32784, -- Miss = 16400, rate = 0.5002, -- PendHits = 16384, rate = 0.4998-- ResFail = 19, rate = 0.0006
Error Per = 50 || Flushes = 328 || slicingInterval = 5000
--	Kid = 3 || L1D Acc = 196942, -- Miss = 192454, rate = 0.9772, -- PendHits = 537, rate = 0.0027-- ResFail = 97635, rate = 0.4958
Error Per = 50 || Flushes = 3849 || slicingInterval = 5000
--	Kid = 4 || L1D Acc = 17408, -- Miss = 17408, rate = 1.0000, -- PendHits = 0, rate = 0.0000-- ResFail = 16770, rate = 0.9634
Error Per = 50 || Flushes = 348 || slicingInterval = 5000
--	Kid = 5 || L1D Acc = 35427, -- Miss = 17758, rate = 0.5013, -- PendHits = 0, rate = 0.0000-- ResFail = 45733, rate = 1.2909
Error Per = 50 || Flushes = 355 || slicingInterval = 5000
--	Kid = 6 || L1D Acc = 35697, -- Miss = 17867, rate = 0.5005, -- PendHits = 0, rate = 0.0000-- ResFail = 23080, rate = 0.6466
Error Per = 50 || Flushes = 357 || slicingInterval = 5000
--	Kid = 7 || L1D Acc = 32261, -- Miss = 31022, rate = 0.9616, -- PendHits = 0, rate = 0.0000-- ResFail = 0, rate = 0.0000
Error Per = 50 || Flushes = 620 || slicingInterval = 5000
--	Kid = 8 || L1D Acc = 38779, -- Miss = 37071, rate = 0.9560, -- PendHits = 0, rate = 0.0000-- ResFail = 0, rate = 0.0000
Error Per = 50 || Flushes = 741 || slicingInterval = 5000
--	Kid = 9 || L1D Acc = 41736, -- Miss = 39418, rate = 0.9445, -- PendHits = 0, rate = 0.0000-- ResFail = 372, rate = 0.0089
Error Per = 50 || Flushes = 788 || slicingInterval = 5000
--	Kid = 10 || L1D Acc = 24968, -- Miss = 15626, rate = 0.6258, -- PendHits = 0, rate = 0.0000-- ResFail = 13, rate = 0.0005
Error Per = 50 || Flushes = 312 || slicingInterval = 5000
--	Kid = 11 || L1D Acc = 47236, -- Miss = 27927, rate = 0.5912, -- PendHits = 0, rate = 0.0000-- ResFail = 179, rate = 0.0038
Error Per = 50 || Flushes = 558 || slicingInterval = 5000
--	Kid = 12 || L1D Acc = 42781, -- Miss = 21464, rate = 0.5017, -- PendHits = 0, rate = 0.0000-- ResFail = 35, rate = 0.0008
Error Per = 50 || Flushes = 429 || slicingInterval = 5000
--	Kid = 13 || L1D Acc = 0, -- Miss = 0, rate = -nan, -- PendHits = 0, rate = -nan-- ResFail = 0, rate = -nan
Error Per = 50 || Flushes = 0 || slicingInterval = 5000
--	Kid = 14 || L1D Acc = 0, -- Miss = 0, rate = -nan, -- PendHits = 0, rate = -nan-- ResFail = 0, rate = -nan
Error Per = 50 || Flushes = 0 || slicingInterval = 5000
--	Kid = 15 || L1D Acc = 131119, -- Miss = 65605, rate = 0.5003, -- PendHits = 0, rate = 0.0000-- ResFail = 50, rate = 0.0004
Error Per = 50 || Flushes = 1312 || slicingInterval = 5000
--	Kid = 16 || L1D Acc = 42531, -- Miss = 35823, rate = 0.8423, -- PendHits = 3403, rate = 0.0800-- ResFail = 8554, rate = 0.2011
Error Per = 50 || Flushes = 716 || slicingInterval = 5000
--------------------------------------------------------------
L1D access stats (for 15'th SM) 
--	Kid = 0 || L1D Acc = 16380, -- Miss = 16380, rate = 1.0000, -- PendHits = 0, rate = 0.0000-- ResFail = 3, rate = 0.0002
Error Per = 50 || Flushes = 327 || slicingInterval = 5000
--	Kid = 1 || L1D Acc = 40320, -- Miss = 40320, rate = 1.0000, -- PendHits = 0, rate = 0.0000-- ResFail = 13, rate = 0.0003
Error Per = 50 || Flushes = 806 || slicingInterval = 5000
--	Kid = 2 || L1D Acc = 32784, -- Miss = 16400, rate = 0.5002, -- PendHits = 16384, rate = 0.4998-- ResFail = 22, rate = 0.0007
Error Per = 50 || Flushes = 328 || slicingInterval = 5000
--	Kid = 3 || L1D Acc = 186225, -- Miss = 181894, rate = 0.9767, -- PendHits = 588, rate = 0.0032-- ResFail = 69830, rate = 0.3750
Error Per = 50 || Flushes = 3637 || slicingInterval = 5000
--	Kid = 4 || L1D Acc = 17408, -- Miss = 17408, rate = 1.0000, -- PendHits = 0, rate = 0.0000-- ResFail = 17313, rate = 0.9945
Error Per = 50 || Flushes = 348 || slicingInterval = 5000
--	Kid = 5 || L1D Acc = 34436, -- Miss = 17260, rate = 0.5012, -- PendHits = 0, rate = 0.0000-- ResFail = 45813, rate = 1.3304
Error Per = 50 || Flushes = 345 || slicingInterval = 5000
--	Kid = 6 || L1D Acc = 33092, -- Miss = 16563, rate = 0.5005, -- PendHits = 0, rate = 0.0000-- ResFail = 23515, rate = 0.7106
Error Per = 50 || Flushes = 331 || slicingInterval = 5000
--	Kid = 7 || L1D Acc = 32341, -- Miss = 31301, rate = 0.9678, -- PendHits = 0, rate = 0.0000-- ResFail = 19, rate = 0.0006
Error Per = 50 || Flushes = 626 || slicingInterval = 5000
--	Kid = 8 || L1D Acc = 38709, -- Miss = 37146, rate = 0.9596, -- PendHits = 0, rate = 0.0000-- ResFail = 19, rate = 0.0005
Error Per = 50 || Flushes = 742 || slicingInterval = 5000
--	Kid = 9 || L1D Acc = 25850, -- Miss = 24798, rate = 0.9593, -- PendHits = 0, rate = 0.0000-- ResFail = 199, rate = 0.0077
Error Per = 50 || Flushes = 495 || slicingInterval = 5000
--	Kid = 10 || L1D Acc = 37627, -- Miss = 31400, rate = 0.8345, -- PendHits = 0, rate = 0.0000-- ResFail = 1359, rate = 0.0361
Error Per = 50 || Flushes = 628 || slicingInterval = 5000
--	Kid = 11 || L1D Acc = 47404, -- Miss = 23914, rate = 0.5045, -- PendHits = 0, rate = 0.0000-- ResFail = 64, rate = 0.0014
Error Per = 50 || Flushes = 478 || slicingInterval = 5000
--	Kid = 12 || L1D Acc = 42510, -- Miss = 21342, rate = 0.5020, -- PendHits = 0, rate = 0.0000-- ResFail = 1, rate = 0.0000
Error Per = 50 || Flushes = 426 || slicingInterval = 5000
--	Kid = 13 || L1D Acc = 0, -- Miss = 0, rate = -nan, -- PendHits = 0, rate = -nan-- ResFail = 0, rate = -nan
Error Per = 50 || Flushes = 0 || slicingInterval = 5000
--	Kid = 14 || L1D Acc = 0, -- Miss = 0, rate = -nan, -- PendHits = 0, rate = -nan-- ResFail = 0, rate = -nan
Error Per = 50 || Flushes = 0 || slicingInterval = 5000
--	Kid = 15 || L1D Acc = 131121, -- Miss = 65609, rate = 0.5004, -- PendHits = 0, rate = 0.0000-- ResFail = 309, rate = 0.0024
Error Per = 50 || Flushes = 1312 || slicingInterval = 5000
--	Kid = 16 || L1D Acc = 42728, -- Miss = 36046, rate = 0.8436, -- PendHits = 3375, rate = 0.0790-- ResFail = 7959, rate = 0.1863
Error Per = 50 || Flushes = 720 || slicingInterval = 5000
--------------------------------------------------------------
L1D access stats (for 16'th SM) 
[...]
issued_total_col = 3182036 
Row_Bus_Util =  0.055153 
CoL_Bus_Util = 0.122530 
Either_Row_CoL_Bus_Util = 0.173599 
Issued_on_Two_Bus_Simul_Util = 0.004084 
issued_two_Eff = 0.023526 
queue_avg = 30.415253 


dram_util_bins: 0 0 0 0 0 0 0 0 0 0
dram_eff_bins: 0 0 0 0 0 0 0 0 0 0
mrqq: max=64 avg=30.4153
Memory Partition 7: 
Cache L2_bank_014:
MSHR contents

Cache L2_bank_015:
MSHR contents

In Dram Latency Queue (total = 0): 
DRAM[7]: 16 bks, busW=2 BL=16 CL=24, tRRD=12 tCCD=4, tRCD=24 tRAS=55 tRP=24 tRC=78
n_cmd=25969393 n_nop=21533073 n_act=713990 n_pre=713974 n_ref_event=0 n_req=2633338 n_rd=2090106 n_rd_L2_A=0 n_write=0 n_wr_bk=1023354 bw_util=0.4796
n_activity=19328870 dram_eff=0.6443
bk0: 131108a 17019191i bk1: 131596a 16955405i bk2: 132872a 17037257i bk3: 133580a 16913757i bk4: 130236a 16958237i bk5: 129701a 17049254i bk6: 129416a 17060934i bk7: 129760a 17120213i bk8: 129996a 17039078i bk9: 129420a 17001977i bk10: 130520a 17108692i bk11: 130324a 17113975i bk12: 130568a 17003493i bk13: 128665a 16977297i bk14: 131648a 17026648i bk15: 130696a 16958633i 

------------------------------------------------------------------------

Row_Buffer_Locality = 0.728871
Row_Buffer_Locality_read = 0.867189
Row_Buffer_Locality_write = 0.196688
Bank_Level_Parallism = 8.047782
Bank_Level_Parallism_Col = 5.745516
Bank_Level_Parallism_Ready = 2.300465
write_to_read_ratio_blp_rw_average = 0.561561
GrpLevelPara = 2.891255 

BW Util details:
bwutil = 0.479558 
total_CMD = 25969393 
util_bw = 12453840 
Wasted_Col = 4822868 
Wasted_Row = 973684 
Idle = 7719001 

BW Util Bottlenecks: 
RCDc_limit = 2024236 
RCDWRc_limit = 2414927 
WTRc_limit = 2901278 
RTWc_limit = 8481243 
CCDLc_limit = 2735981 
rwq = 0 
CCDLc_limit_alone = 1774582 
WTRc_limit_alone = 2729991 
RTWc_limit_alone = 7691131 

Commands details: 
total_CMD = 25969393 
n_nop = 21533073 
Read = 2090106 
Write = 0 
L2_Alloc = 0 
L2_WB = 1023354 
n_act = 713990 
n_pre = 713974 
n_ref = 0 
n_req = 2633338 
total_req = 3113460 

Dual Bus Interface Util: 
issued_total_row = 1427964 
issued_total_col = 3113460 
Row_Bus_Util =  0.054986 
CoL_Bus_Util = 0.119890 
Either_Row_CoL_Bus_Util = 0.170829 
Issued_on_Two_Bus_Simul_Util = 0.004047 
issued_two_Eff = 0.023692 
queue_avg = 29.137180 


dram_util_bins: 0 0 0 0 0 0 0 0 0 0
dram_eff_bins: 0 0 0 0 0 0 0 0 0 0
mrqq: max=64 avg=29.1372
Memory Partition 8: 
Cache L2_bank_016:
MSHR contents

Cache L2_bank_017:
MSHR contents

In Dram Latency Queue (total = 0): 
DRAM[8]: 16 bks, busW=2 BL=16 CL=24, tRRD=12 tCCD=4, tRCD=24 tRAS=55 tRP=24 tRC=78
n_cmd=25969393 n_nop=21448245 n_act=718169 n_pre=718153 n_ref_event=0 n_req=2712685 n_rd=2168933 n_rd_L2_A=0 n_write=0 n_wr_bk=1023540 bw_util=0.4917
n_activity=19464688 dram_eff=0.6561
bk0: 136824a 16749418i bk1: 138031a 16713241i bk2: 137292a 16683234i bk3: 138621a 16711212i bk4: 133991a 16686992i bk5: 135620a 16739303i bk6: 134976a 16735104i bk7: 135137a 16780134i bk8: 133865a 16736647i bk9: 133777a 16793144i bk10: 135003a 16816629i bk11: 134267a 16897790i bk12: 132981a 16762157i bk13: 134700a 16790385i bk14: 136922a 16718803i bk15: 136926a 16755984i 

------------------------------------------------------------------------

Row_Buffer_Locality = 0.735261
Row_Buffer_Locality_read = 0.869727
Row_Buffer_Locality_write = 0.198901
Bank_Level_Parallism = 8.211371
Bank_Level_Parallism_Col = 5.921840
Bank_Level_Parallism_Ready = 2.338818
write_to_read_ratio_blp_rw_average = 0.562010
GrpLevelPara = 2.943366 

BW Util details:
bwutil = 0.491729 
total_CMD = 25969393 
util_bw = 12769892 
Wasted_Col = 4720980 
Wasted_Row = 925864 
Idle = 7552657 

BW Util Bottlenecks: 
RCDc_limit = 1999376 
RCDWRc_limit = 2366541 
WTRc_limit = 2897273 
RTWc_limit = 8632670 
CCDLc_limit = 2717433 
rwq = 0 
CCDLc_limit_alone = 1747611 
WTRc_limit_alone = 2728111 
RTWc_limit_alone = 7832010 

Commands details: 
total_CMD = 25969393 
n_nop = 21448245 
Read = 2168933 
Write = 0 
L2_Alloc = 0 
L2_WB = 1023540 
n_act = 718169 
n_pre = 718153 
n_ref = 0 
n_req = 2712685 
total_req = 3192473 

Dual Bus Interface Util: 
issued_total_row = 1436322 
issued_total_col = 3192473 
Row_Bus_Util =  0.055308 
CoL_Bus_Util = 0.122932 
Either_Row_CoL_Bus_Util = 0.174095 
Issued_on_Two_Bus_Simul_Util = 0.004145 
issued_two_Eff = 0.023810 
queue_avg = 30.837873 


dram_util_bins: 0 0 0 0 0 0 0 0 0 0
dram_eff_bins: 0 0 0 0 0 0 0 0 0 0
mrqq: max=64 avg=30.8379
Memory Partition 9: 
Cache L2_bank_018:
MSHR contents

Cache L2_bank_019:
MSHR contents

In Dram Latency Queue (total = 0): 
DRAM[9]: 16 bks, busW=2 BL=16 CL=24, tRRD=12 tCCD=4, tRCD=24 tRAS=55 tRP=24 tRC=78
n_cmd=25969393 n_nop=21530565 n_act=714159 n_pre=714143 n_ref_event=0 n_req=2634428 n_rd=2092373 n_rd_L2_A=0 n_write=0 n_wr_bk=1022953 bw_util=0.4798
n_activity=19380194 dram_eff=0.643
bk0: 132500a 17039204i bk1: 131503a 17050629i bk2: 133249a 16992188i bk3: 133348a 16988173i bk4: 130857a 16986004i bk5: 129572a 17043301i bk6: 129775a 17100876i bk7: 129256a 17088551i bk8: 130370a 17068596i bk9: 129709a 17044697i bk10: 131566a 17122078i bk11: 129724a 17211491i bk12: 130585a 17003952i bk13: 128563a 17049938i bk14: 132184a 17062810i bk15: 129612a 17084090i 

------------------------------------------------------------------------

Row_Buffer_Locality = 0.728919
Row_Buffer_Locality_read = 0.867189
Row_Buffer_Locality_write = 0.195187
Bank_Level_Parallism = 7.992542
Bank_Level_Parallism_Col = 5.701391
Bank_Level_Parallism_Ready = 2.289485
write_to_read_ratio_blp_rw_average = 0.560942
GrpLevelPara = 2.883668 

BW Util details:
bwutil = 0.479846 
total_CMD = 25969393 
util_bw = 12461304 
Wasted_Col = 4857492 
Wasted_Row = 982410 
Idle = 7668187 

BW Util Bottlenecks: 
RCDc_limit = 2042496 
RCDWRc_limit = 2425579 
WTRc_limit = 2898801 
RTWc_limit = 8442489 
CCDLc_limit = 2743133 
rwq = 0 
CCDLc_limit_alone = 1779047 
WTRc_limit_alone = 2730103 
RTWc_limit_alone = 7647101 

Commands details: 
total_CMD = 25969393 
n_nop = 21530565 
Read = 2092373 
Write = 0 
L2_Alloc = 0 
L2_WB = 1022953 
n_act = 714159 
n_pre = 714143 
n_ref = 0 
n_req = 2634428 
total_req = 3115326 

Dual Bus Interface Util: 
issued_total_row = 1428302 
issued_total_col = 3115326 
Row_Bus_Util =  0.054999 
CoL_Bus_Util = 0.119961 
Either_Row_CoL_Bus_Util = 0.170925 
Issued_on_Two_Bus_Simul_Util = 0.004036 
issued_two_Eff = 0.023610 
queue_avg = 28.982212 


dram_util_bins: 0 0 0 0 0 0 0 0 0 0
dram_eff_bins: 0 0 0 0 0 0 0 0 0 0
mrqq: max=64 avg=28.9822
Memory Partition 10: 
Cache L2_bank_020:
MSHR contents

Cache L2_bank_021:
MSHR contents

In Dram Latency Queue (total = 0): 
DRAM[10]: 16 bks, busW=2 BL=16 CL=24, tRRD=12 tCCD=4, tRCD=24 tRAS=55 tRP=24 tRC=78
n_cmd=25969393 n_nop=21462329 n_act=714546 n_pre=714530 n_ref_event=0 n_req=2702921 n_rd=2162660 n_rd_L2_A=0 n_write=0 n_wr_bk=1021244 bw_util=0.4904
n_activity=19477529 dram_eff=0.6539
bk0: 136009a 16825241i bk1: 138300a 16773957i bk2: 137802a 16796417i bk3: 138436a 16802551i bk4: 133028a 16844117i bk5: 134900a 16847698i bk6: 133932a 16858166i bk7: 134476a 16841041i bk8: 133717a 16891131i bk9: 133660a 16771368i bk10: 135200a 16900745i bk11: 134108a 16960412i bk12: 133080a 16809678i bk13: 133808a 16938387i bk14: 136056a 16810438i bk15: 136148a 16778926i 

------------------------------------------------------------------------

Row_Buffer_Locality = 0.735645
Row_Buffer_Locality_read = 0.869730
Row_Buffer_Locality_write = 0.198904
Bank_Level_Parallism = 8.134782
Bank_Level_Parallism_Col = 5.848271
Bank_Level_Parallism_Ready = 2.319566
write_to_read_ratio_blp_rw_average = 0.560505
GrpLevelPara = 2.925541 

BW Util details:
bwutil = 0.490409 
total_CMD = 25969393 
util_bw = 12735616 
Wasted_Col = 4749869 
Wasted_Row = 933099 
Idle = 7550809 

BW Util Bottlenecks: 
RCDc_limit = 2006912 
RCDWRc_limit = 2366931 
WTRc_limit = 2906391 
RTWc_limit = 8516320 
CCDLc_limit = 2734459 
rwq = 0 
CCDLc_limit_alone = 1768723 
WTRc_limit_alone = 2737325 
RTWc_limit_alone = 7719650 

Commands details: 
total_CMD = 25969393 
n_nop = 21462329 
Read = 2162660 
Write = 0 
L2_Alloc = 0 
L2_WB = 1021244 
n_act = 714546 
n_pre = 714530 
n_ref = 0 
n_req = 2702921 
total_req = 3183904 

Dual Bus Interface Util: 
issued_total_row = 1429076 
issued_total_col = 3183904 
Row_Bus_Util =  0.055029 
CoL_Bus_Util = 0.122602 
Either_Row_CoL_Bus_Util = 0.173553 
Issued_on_Two_Bus_Simul_Util = 0.004078 
issued_two_Eff = 0.023500 
queue_avg = 30.488272 


dram_util_bins: 0 0 0 0 0 0 0 0 0 0
dram_eff_bins: 0 0 0 0 0 0 0 0 0 0
mrqq: max=64 avg=30.4883
Memory Partition 11: 
Cache L2_bank_022:
MSHR contents

Cache L2_bank_023:
MSHR contents

In Dram Latency Queue (total = 0): 
DRAM[11]: 16 bks, busW=2 BL=16 CL=24, tRRD=12 tCCD=4, tRCD=24 tRAS=55 tRP=24 tRC=78
n_cmd=25969393 n_nop=21536428 n_act=713075 n_pre=713059 n_ref_event=0 n_req=2632094 n_rd=2088583 n_rd_L2_A=0 n_write=0 n_wr_bk=1023353 bw_util=0.4793
n_activity=19335022 dram_eff=0.6438
bk0: 131572a 17018189i bk1: 131528a 16937847i bk2: 132104a 17002396i bk3: 133986a 16915297i bk4: 130180a 16969443i bk5: 129473a 17021981i bk6: 128684a 17122977i bk7: 130088a 17034179i bk8: 130092a 17093848i bk9: 129332a 16988018i bk10: 130668a 17119918i bk11: 129853a 17088652i bk12: 129752a 16992988i bk13: 129280a 17002609i bk14: 130860a 17036761i bk15: 131131a 16947387i 

------------------------------------------------------------------------

Row_Buffer_Locality = 0.729091
Row_Buffer_Locality_read = 0.867497
Row_Buffer_Locality_write = 0.197227
Bank_Level_Parallism = 8.048085
Bank_Level_Parallism_Col = 5.747020
Bank_Level_Parallism_Ready = 2.309503
write_to_read_ratio_blp_rw_average = 0.561482
GrpLevelPara = 2.891509 

BW Util details:
bwutil = 0.479324 
total_CMD = 25969393 
util_bw = 12447744 
Wasted_Col = 4831211 
Wasted_Row = 977197 
Idle = 7713241 

BW Util Bottlenecks: 
RCDc_limit = 2029550 
RCDWRc_limit = 2417523 
WTRc_limit = 2903511 
RTWc_limit = 8470004 
CCDLc_limit = 2733038 
rwq = 0 
CCDLc_limit_alone = 1769482 
WTRc_limit_alone = 2733574 
RTWc_limit_alone = 7676385 

Commands details: 
total_CMD = 25969393 
n_nop = 21536428 
Read = 2088583 
Write = 0 
L2_Alloc = 0 
L2_WB = 1023353 
n_act = 713075 
n_pre = 713059 
n_ref = 0 
n_req = 2632094 
total_req = 3111936 

Dual Bus Interface Util: 
issued_total_row = 1426134 
issued_total_col = 3111936 
Row_Bus_Util =  0.054916 
CoL_Bus_Util = 0.119831 
Either_Row_CoL_Bus_Util = 0.170700 
Issued_on_Two_Bus_Simul_Util = 0.004047 
issued_two_Eff = 0.023710 
queue_avg = 29.266527 


dram_util_bins: 0 0 0 0 0 0 0 0 0 0
dram_eff_bins: 0 0 0 0 0 0 0 0 0 0
mrqq: max=64 avg=29.2665

========= L2 cache stats =========
L2_cache_bank[0]: Access = 1955214, Miss = 1593515, Miss_rate = 0.815, Pending_hits = 6428, Reservation_fails = 42410
L2_cache_bank[1]: Access = 1952720, Miss = 1594455, Miss_rate = 0.817, Pending_hits = 6384, Reservation_fails = 43029
L2_cache_bank[2]: Access = 1948222, Miss = 1557319, Miss_rate = 0.799, Pending_hits = 6352, Reservation_fails = 36612
L2_cache_bank[3]: Access = 1948687, Miss = 1545038, Miss_rate = 0.793, Pending_hits = 6341, Reservation_fails = 30135
L2_cache_bank[4]: Access = 1949186, Miss = 1583619, Miss_rate = 0.812, Pending_hits = 6273, Reservation_fails = 36742
L2_cache_bank[5]: Access = 1949423, Miss = 1590799, Miss_rate = 0.816, Pending_hits = 6407, Reservation_fails = 44545
L2_cache_bank[6]: Access = 1951305, Miss = 1551586, Miss_rate = 0.795, Pending_hits = 6293, Reservation_fails = 20416
L2_cache_bank[7]: Access = 1950607, Miss = 1549350, Miss_rate = 0.794, Pending_hits = 6452, Reservation_fails = 22824
L2_cache_bank[8]: Access = 1955501, Miss = 1591261, Miss_rate = 0.814, Pending_hits = 6346, Reservation_fails = 37372
L2_cache_bank[9]: Access = 1952150, Miss = 1590844, Miss_rate = 0.815, Pending_hits = 6422, Reservation_fails = 43380
L2_cache_bank[10]: Access = 1948055, Miss = 1557026, Miss_rate = 0.799, Pending_hits = 6377, Reservation_fails = 24023
L2_cache_bank[11]: Access = 1949639, Miss = 1546301, Miss_rate = 0.793, Pending_hits = 6283, Reservation_fails = 26573
L2_cache_bank[12]: Access = 1951206, Miss = 1584731, Miss_rate = 0.812, Pending_hits = 6261, Reservation_fails = 25211
L2_cache_bank[13]: Access = 1950614, Miss = 1589308, Miss_rate = 0.815, Pending_hits = 6466, Reservation_fails = 34131
L2_cache_bank[14]: Access = 1954122, Miss = 1553542, Miss_rate = 0.795, Pending_hits = 6330, Reservation_fails = 21757
L2_cache_bank[15]: Access = 1952701, Miss = 1551941, Miss_rate = 0.795, Pending_hits = 6358, Reservation_fails = 24382
L2_cache_bank[16]: Access = 1953259, Miss = 1590447, Miss_rate = 0.814, Pending_hits = 6395, Reservation_fails = 37498
L2_cache_bank[17]: Access = 1952127, Miss = 1594161, Miss_rate = 0.817, Pending_hits = 6396, Reservation_fails = 37910
L2_cache_bank[18]: Access = 1949355, Miss = 1558669, Miss_rate = 0.800, Pending_hits = 6392, Reservation_fails = 27527
L2_cache_bank[19]: Access = 1949996, Miss = 1548769, Miss_rate = 0.794, Pending_hits = 6286, Reservation_fails = 26596
L2_cache_bank[20]: Access = 1951797, Miss = 1585974, Miss_rate = 0.813, Pending_hits = 6307, Reservation_fails = 34551
L2_cache_bank[21]: Access = 1949903, Miss = 1589994, Miss_rate = 0.815, Pending_hits = 6514, Reservation_fails = 47578
L2_cache_bank[22]: Access = 1951084, Miss = 1550731, Miss_rate = 0.795, Pending_hits = 6331, Reservation_fails = 29059
L2_cache_bank[23]: Access = 1951908, Miss = 1553227, Miss_rate = 0.796, Pending_hits = 6386, Reservation_fails = 23746
L2_total_cache_accesses = 46828781
L2_total_cache_misses = 37702607
L2_total_cache_miss_rate = 0.8051
L2_total_cache_pending_hits = 152780
L2_total_cache_reservation_fails = 778007
L2_total_cache_breakdown:
	L2_cache_stats_breakdown[GLOBAL_ACC_R][HIT] = 46352
	L2_cache_stats_breakdown[GLOBAL_ACC_R][HIT_RESERVED] = 14311
	L2_cache_stats_breakdown[GLOBAL_ACC_R][MISS] = 717299
	L2_cache_stats_breakdown[GLOBAL_ACC_R][RESERVATION_FAIL] = 2658
	L2_cache_stats_breakdown[GLOBAL_ACC_R][SECTOR_MISS] = 2154863
	L2_cache_stats_breakdown[GLOBAL_ACC_R][MSHR_HIT] = 14311
	L2_cache_stats_breakdown[LOCAL_ACC_R][HIT] = 0
	L2_cache_stats_breakdown[LOCAL_ACC_R][HIT_RESERVED] = 0
	L2_cache_stats_breakdown[LOCAL_ACC_R][MISS] = 0
	L2_cache_stats_breakdown[LOCAL_ACC_R][RESERVATION_FAIL] = 0
	L2_cache_stats_breakdown[LOCAL_ACC_R][SECTOR_MISS] = 0
	L2_cache_stats_breakdown[LOCAL_ACC_R][MSHR_HIT] = 0
	L2_cache_stats_breakdown[CONST_ACC_R][HIT] = 0
	L2_cache_stats_breakdown[CONST_ACC_R][HIT_RESERVED] = 0
	L2_cache_stats_breakdown[CONST_ACC_R][MISS] = 0
	L2_cache_stats_breakdown[CONST_ACC_R][RESERVATION_FAIL] = 0
	L2_cache_stats_breakdown[CONST_ACC_R][SECTOR_MISS] = 0
	L2_cache_stats_breakdown[CONST_ACC_R][MSHR_HIT] = 0
	L2_cache_stats_breakdown[TEXTURE_ACC_R][HIT] = 3608917
	L2_cache_stats_breakdown[TEXTURE_ACC_R][HIT_RESERVED] = 7397
	L2_cache_stats_breakdown[TEXTURE_ACC_R][MISS] = 5648002
	L2_cache_stats_breakdown[TEXTURE_ACC_R][RESERVATION_FAIL] = 775349
	L2_cache_stats_breakdown[TEXTURE_ACC_R][SECTOR_MISS] = 17004804
	L2_cache_stats_breakdown[TEXTURE_ACC_R][MSHR_HIT] = 7397
	L2_cache_stats_breakdown[GLOBAL_ACC_W][HIT] = 5318125
	L2_cache_stats_breakdown[GLOBAL_ACC_W][HIT_RESERVED] = 131072
	L2_cache_stats_breakdown[GLOBAL_ACC_W][MISS] = 6482579
	L2_cache_stats_breakdown[GLOBAL_ACC_W][RESERVATION_FAIL] = 0
	L2_cache_stats_breakdown[GLOBAL_ACC_W][SECTOR_MISS] = 5695060
	L2_cache_stats_breakdown[GLOBAL_ACC_W][MSHR_HIT] = 0
	L2_cache_stats_breakdown[LOCAL_ACC_W][HIT] = 0
	L2_cache_stats_breakdown[LOCAL_ACC_W][HIT_RESERVED] = 0
	L2_cache_stats_breakdown[LOCAL_ACC_W][MISS] = 0
	L2_cache_stats_breakdown[LOCAL_ACC_W][RESERVATION_FAIL] = 0
	L2_cache_stats_breakdown[LOCAL_ACC_W][SECTOR_MISS] = 0
	L2_cache_stats_breakdown[LOCAL_ACC_W][MSHR_HIT] = 0
	L2_cache_stats_breakdown[L1_WRBK_ACC][HIT] = 0
	L2_cache_stats_breakdown[L1_WRBK_ACC][HIT_RESERVED] = 0
	L2_cache_stats_breakdown[L1_WRBK_ACC][MISS] = 0
	L2_cache_stats_breakdown[L1_WRBK_ACC][RESERVATION_FAIL] = 0
	L2_cache_stats_breakdown[L1_WRBK_ACC][SECTOR_MISS] = 0
	L2_cache_stats_breakdown[L1_WRBK_ACC][MSHR_HIT] = 0
	L2_cache_stats_breakdown[L2_WRBK_ACC][HIT] = 0
	L2_cache_stats_breakdown[L2_WRBK_ACC][HIT_RESERVED] = 0
	L2_cache_stats_breakdown[L2_WRBK_ACC][MISS] = 0
	L2_cache_stats_breakdown[L2_WRBK_ACC][RESERVATION_FAIL] = 0
	L2_cache_stats_breakdown[L2_WRBK_ACC][SECTOR_MISS] = 0
	L2_cache_stats_breakdown[L2_WRBK_ACC][MSHR_HIT] = 0
	L2_cache_stats_breakdown[INST_ACC_R][HIT] = 0
	L2_cache_stats_breakdown[INST_ACC_R][HIT_RESERVED] = 0
	L2_cache_stats_breakdown[INST_ACC_R][MISS] = 0
	L2_cache_stats_breakdown[INST_ACC_R][RESERVATION_FAIL] = 0
	L2_cache_stats_breakdown[INST_ACC_R][SECTOR_MISS] = 0
	L2_cache_stats_breakdown[INST_ACC_R][MSHR_HIT] = 0
	L2_cache_stats_breakdown[L1_WR_ALLOC_R][HIT] = 0
	L2_cache_stats_breakdown[L1_WR_ALLOC_R][HIT_RESERVED] = 0
	L2_cache_stats_breakdown[L1_WR_ALLOC_R][MISS] = 0
	L2_cache_stats_breakdown[L1_WR_ALLOC_R][RESERVATION_FAIL] = 0
	L2_cache_stats_breakdown[L1_WR_ALLOC_R][SECTOR_MISS] = 0
	L2_cache_stats_breakdown[L1_WR_ALLOC_R][MSHR_HIT] = 0
	L2_cache_stats_breakdown[L2_WR_ALLOC_R][HIT] = 0
	L2_cache_stats_breakdown[L2_WR_ALLOC_R][HIT_RESERVED] = 0
	L2_cache_stats_breakdown[L2_WR_ALLOC_R][MISS] = 0
	L2_cache_stats_breakdown[L2_WR_ALLOC_R][RESERVATION_FAIL] = 0
	L2_cache_stats_breakdown[L2_WR_ALLOC_R][SECTOR_MISS] = 0
	L2_cache_stats_breakdown[L2_WR_ALLOC_R][MSHR_HIT] = 0
	L2_cache_stats_breakdown[GLOBAL_ACC_R][TOTAL_ACCESS] = 2932825
	L2_cache_stats_breakdown[TEXTURE_ACC_R][TOTAL_ACCESS] = 26269120
	L2_cache_stats_breakdown[GLOBAL_ACC_W][TOTAL_ACCESS] = 17626836
L2_total_cache_reservation_fail_breakdown:
	L2_cache_stats_fail_breakdown[GLOBAL_ACC_R][MISS_QUEUE_FULL] = 18
	L2_cache_stats_fail_breakdown[GLOBAL_ACC_R][MSHR_ENRTY_FAIL] = 56
	L2_cache_stats_fail_breakdown[GLOBAL_ACC_R][MSHR_MERGE_ENRTY_FAIL] = 2584
	L2_cache_stats_fail_breakdown[TEXTURE_ACC_R][MISS_QUEUE_FULL] = 236
	L2_cache_stats_fail_breakdown[TEXTURE_ACC_R][MSHR_ENRTY_FAIL] = 775113
L2_cache_data_port_util = 0.066
L2_cache_fill_port_util = 0.105

icnt_total_pkts_mem_to_simt=46828781
icnt_total_pkts_simt_to_mem=27126941
LD_mem_lat_dist  0 0 0 0 0 0 0 0 0 0 0 0 0 0 0 0 0 0 0 0 0 0 0 0 0 0 0
ST_mem_lat_dist  0 0 0 0 0 0 0 0 0 0 0 0 0 0 0 0 0 0 0 0 0 0 0 0 0 0 0
----------------------------Interconnect-DETAILS--------------------------------
Req_Network_injected_packets_num = 27126941
Req_Network_cycles = 10126631
Req_Network_injected_packets_per_cycle =       2.6788 
Req_Network_conflicts_per_cycle =       1.6423
Req_Network_conflicts_per_cycle_util =       2.0030
Req_Bank_Level_Parallism =       3.2671
Req_Network_in_buffer_full_per_cycle =       0.0007
Req_Network_in_buffer_avg_util =       5.5227
Req_Network_out_buffer_full_per_cycle =       0.0744
Req_Network_out_buffer_avg_util =      32.1448

Reply_Network_injected_packets_num = 46828781
Reply_Network_cycles = 10126631
Reply_Network_injected_packets_per_cycle =        4.6243
Reply_Network_conflicts_per_cycle =        3.6399
Reply_Network_conflicts_per_cycle_util =       4.1373
Reply_Bank_Level_Parallism =       5.2562
Reply_Network_in_buffer_full_per_cycle =       0.0088
Reply_Network_in_buffer_avg_util =      10.7428
Reply_Network_out_buffer_full_per_cycle =       0.0000
Reply_Network_out_buffer_avg_util =       0.1541
----------------------------END-of-Interconnect-DETAILS-------------------------


gpgpu_simulation_time = 0 days, 19 hrs, 20 min, 9 sec (69609 sec)
gpgpu_simulation_rate = 22909 (inst/sec)
gpgpu_simulation_rate = 145 (cycle/sec)
gpgpu_silicon_slowdown = 9413793x
GPGPU-Sim: synchronize waiting for inactive GPU simulation
GPGPU-Sim API: Stream Manager State
GPGPU-Sim: detected inactive GPU simulation thread
done.
Sorting on CPU...done.
Checking result...PASSED.
Total element = 4194304, || elements whose err <= %0.1 = 0 || elements whose 0.1 < err  <= %1 = 0 || elements whose %1 < err <= %5 = 0 || elements whose %5 < err <= %10 = 0 || elements whose %10 < err = 0 || total err Element = 0
GPU iterations: 1
GPGPU-Sim: *** exit detected ***
