

        *** GPGPU-Sim Simulator Version 4.2.0  [build gpgpu-sim_git-commit-5e9d31b8132651796656877ecb58fde27177ba7a_modified_303.0] ***


GPGPU-Sim PTX: simulation mode 0 (can change with PTX_SIM_MODE_FUNC environment variable:
               1=functional simulation only, 0=detailed performance simulator)
GPGPU-Sim PTX: overriding embedded ptx with ptx file (PTX_SIM_USE_PTX_FILE is set)
GPGPU-Sim: Configuration options:

-save_embedded_ptx                      0 # saves ptx files embedded in binary as <n>.ptx
-keep                                   0 # keep intermediate files created by GPGPU-Sim when interfacing with external programs
-gpgpu_ptx_save_converted_ptxplus                    0 # Saved converted ptxplus to a file
-gpgpu_occupancy_sm_number                   75 # The SM number to pass to ptxas when getting register usage for computing GPU occupancy. This parameter is required in the config.
-ptx_opcode_latency_int           4,4,4,4,21 # Opcode latencies for integers <ADD,MAX,MUL,MAD,DIV,SHFL>Default 1,1,19,25,145,32
-ptx_opcode_latency_fp           4,4,4,4,39 # Opcode latencies for single precision floating points <ADD,MAX,MUL,MAD,DIV>Default 1,1,1,1,30
-ptx_opcode_latency_dp      64,64,64,64,330 # Opcode latencies for double precision floating points <ADD,MAX,MUL,MAD,DIV>Default 8,8,8,8,335
-ptx_opcode_latency_sfu                   21 # Opcode latencies for SFU instructionsDefault 8
-ptx_opcode_latency_tesnor                   64 # Opcode latencies for Tensor instructionsDefault 64
-ptx_opcode_initiation_int            2,2,2,2,2 # Opcode initiation intervals for integers <ADD,MAX,MUL,MAD,DIV,SHFL>Default 1,1,4,4,32,4
-ptx_opcode_initiation_fp            2,2,2,2,4 # Opcode initiation intervals for single precision floating points <ADD,MAX,MUL,MAD,DIV>Default 1,1,1,1,5
-ptx_opcode_initiation_dp      64,64,64,64,130 # Opcode initiation intervals for double precision floating points <ADD,MAX,MUL,MAD,DIV>Default 8,8,8,8,130
-ptx_opcode_initiation_sfu                    8 # Opcode initiation intervals for sfu instructionsDefault 8
-ptx_opcode_initiation_tensor                   64 # Opcode initiation intervals for tensor instructionsDefault 64
-cdp_latency         7200,8000,100,12000,1600 # CDP API latency <cudaStreamCreateWithFlags, cudaGetParameterBufferV2_init_perWarp, cudaGetParameterBufferV2_perKernel, cudaLaunchDeviceV2_init_perWarp, cudaLaunchDevicV2_perKernel>Default 7200,8000,100,12000,1600
-network_mode                           2 # Interconnection network mode
-inter_config_file                   mesh # Interconnection network config file
-icnt_in_buffer_limit                  512 # in_buffer_limit
-icnt_out_buffer_limit                  512 # out_buffer_limit
-icnt_subnets                           2 # subnets
-icnt_arbiter_algo                      1 # arbiter_algo
-icnt_verbose                           0 # inct_verbose
-icnt_grant_cycles                      1 # grant_cycles
-gpgpu_ptx_use_cuobjdump                    1 # Use cuobjdump to extract ptx and sass from binaries
-gpgpu_experimental_lib_support                    0 # Try to extract code from cuda libraries [Broken because of unknown cudaGetExportTable]
-checkpoint_option                      0 #  checkpointing flag (0 = no checkpoint)
-checkpoint_kernel                      1 #  checkpointing during execution of which kernel (1- 1st kernel)
-checkpoint_CTA                         0 #  checkpointing after # of CTA (< less than total CTA)
-resume_option                          0 #  resume flag (0 = no resume)
-resume_kernel                          0 #  Resume from which kernel (1= 1st kernel)
-resume_CTA                             0 #  resume from which CTA 
-checkpoint_CTA_t                       0 #  resume from which CTA 
-checkpoint_insn_Y                      0 #  resume from which CTA 
-gpgpu_ptx_convert_to_ptxplus                    0 # Convert SASS (native ISA) to ptxplus and run ptxplus
-gpgpu_ptx_force_max_capability                   75 # Force maximum compute capability
-gpgpu_ptx_inst_debug_to_file                    0 # Dump executed instructions' debug information to file
-gpgpu_ptx_inst_debug_file       inst_debug.txt # Executed instructions' debug output file
-gpgpu_ptx_inst_debug_thread_uid                    1 # Thread UID for executed instructions' debug output
-gpgpu_simd_model                       1 # 1 = post-dominator
-gpgpu_shader_core_pipeline              1024:32 # shader core pipeline config, i.e., {<nthread>:<warpsize>}
-gpgpu_tex_cache:l1  N:4:128:256,L:R:m:N:L,T:512:8,128:2 # per-shader L1 texture cache  (READ-ONLY) config  {<nsets>:<bsize>:<assoc>,<rep>:<wr>:<alloc>:<wr_alloc>,<mshr>:<N>:<merge>,<mq>:<rf>}
-gpgpu_const_cache:l1 N:128:64:8,L:R:f:N:L,S:2:64,4 # per-shader L1 constant memory cache  (READ-ONLY) config  {<nsets>:<bsize>:<assoc>,<rep>:<wr>:<alloc>:<wr_alloc>,<mshr>:<N>:<merge>,<mq>} 
-gpgpu_cache:il1     N:64:128:16,L:R:f:N:L,S:2:48,4 # shader L1 instruction cache config  {<nsets>:<bsize>:<assoc>,<rep>:<wr>:<alloc>:<wr_alloc>,<mshr>:<N>:<merge>,<mq>} 
-gpgpu_cache:dl1     S:4:128:64,L:T:m:L:L,A:256:32,16:0,32 # per-shader L1 data cache config  {<nsets>:<bsize>:<assoc>,<rep>:<wr>:<alloc>:<wr_alloc>,<mshr>:<N>:<merge>,<mq> | none}
-gpgpu_l1_cache_write_ratio                   25 # L1D write ratio
-gpgpu_l1_banks                         4 # The number of L1 cache banks
-gpgpu_l1_banks_byte_interleaving                   32 # l1 banks byte interleaving granularity
-gpgpu_l1_banks_hashing_function                    0 # l1 banks hashing function
-gpgpu_l1_latency                      32 # L1 Hit Latency
-gpgpu_smem_latency                    30 # smem Latency
-gpgpu_cache:dl1PrefL1                 none # per-shader L1 data cache config  {<nsets>:<bsize>:<assoc>,<rep>:<wr>:<alloc>:<wr_alloc>,<mshr>:<N>:<merge>,<mq> | none}
-gpgpu_cache:dl1PrefShared                 none # per-shader L1 data cache config  {<nsets>:<bsize>:<assoc>,<rep>:<wr>:<alloc>:<wr_alloc>,<mshr>:<N>:<merge>,<mq> | none}
-gpgpu_gmem_skip_L1D                    0 # global memory access skip L1D cache (implements -Xptxas -dlcm=cg, default=no skip)
-gpgpu_perfect_mem                      0 # enable perfect memory mode (no cache miss)
-n_regfile_gating_group                    4 # group of lanes that should be read/written together)
-gpgpu_clock_gated_reg_file                    0 # enable clock gated reg file for power calculations
-gpgpu_clock_gated_lanes                    0 # enable clock gated lanes for power calculations
-gpgpu_shader_registers                65536 # Number of registers per shader core. Limits number of concurrent CTAs. (default 8192)
-gpgpu_registers_per_block                65536 # Maximum number of registers per CTA. (default 8192)
-gpgpu_ignore_resources_limitation                    0 # gpgpu_ignore_resources_limitation (default 0)
-gpgpu_shader_cta                      16 # Maximum number of concurrent CTAs in shader (default 32)
-gpgpu_num_cta_barriers                   16 # Maximum number of named barriers per CTA (default 16)
-gpgpu_n_clusters                      30 # number of processing clusters
-gpgpu_n_cores_per_cluster                    1 # number of simd cores per cluster
-gpgpu_n_cluster_ejection_buffer_size                   32 # number of packets in ejection buffer
-gpgpu_n_ldst_response_buffer_size                    2 # number of response packets in ld/st unit ejection buffer
-gpgpu_shmem_per_block                49152 # Size of shared memory per thread block or CTA (default 48kB)
-gpgpu_shmem_size                   65536 # Size of shared memory per shader core (default 16kB)
-gpgpu_shmem_option                 32,64 # Option list of shared memory sizes
-gpgpu_unified_l1d_size                   96 # Size of unified data cache(L1D + shared memory) in KB
-gpgpu_adaptive_cache_config                    1 # adaptive_cache_config
-gpgpu_shmem_sizeDefault                65536 # Size of shared memory per shader core (default 16kB)
-gpgpu_shmem_size_PrefL1                16384 # Size of shared memory per shader core (default 16kB)
-gpgpu_shmem_size_PrefShared                16384 # Size of shared memory per shader core (default 16kB)
-gpgpu_shmem_num_banks                   32 # Number of banks in the shared memory in each shader core (default 16)
-gpgpu_shmem_limited_broadcast                    0 # Limit shared memory to do one broadcast per cycle (default on)
-gpgpu_shmem_warp_parts                    1 # Number of portions a warp is divided into for shared memory bank conflict check 
-gpgpu_mem_unit_ports                    1 # The number of memory transactions allowed per core cycle
-gpgpu_shmem_warp_parts                    1 # Number of portions a warp is divided into for shared memory bank conflict check 
-gpgpu_warpdistro_shader                   -1 # Specify which shader core to collect the warp size distribution from
-gpgpu_warp_issue_shader                    0 # Specify which shader core to collect the warp issue distribution from
-gpgpu_local_mem_map                    1 # Mapping from local memory space address to simulated GPU physical address space (default = enabled)
-gpgpu_num_reg_banks                    8 # Number of register banks (default = 8)
-gpgpu_reg_bank_use_warp_id                    0 # Use warp ID in mapping registers to banks (default = off)
-gpgpu_sub_core_model                    1 # Sub Core Volta/Pascal model (default = off)
-gpgpu_enable_specialized_operand_collector                    0 # enable_specialized_operand_collector
-gpgpu_operand_collector_num_units_sp                    4 # number of collector units (default = 4)
-gpgpu_operand_collector_num_units_dp                    0 # number of collector units (default = 0)
-gpgpu_operand_collector_num_units_sfu                    4 # number of collector units (default = 4)
-gpgpu_operand_collector_num_units_int                    0 # number of collector units (default = 0)
-gpgpu_operand_collector_num_units_tensor_core                    4 # number of collector units (default = 4)
-gpgpu_operand_collector_num_units_mem                    2 # number of collector units (default = 2)
-gpgpu_operand_collector_num_units_gen                    8 # number of collector units (default = 0)
-gpgpu_operand_collector_num_in_ports_sp                    1 # number of collector unit in ports (default = 1)
-gpgpu_operand_collector_num_in_ports_dp                    0 # number of collector unit in ports (default = 0)
-gpgpu_operand_collector_num_in_ports_sfu                    1 # number of collector unit in ports (default = 1)
-gpgpu_operand_collector_num_in_ports_int                    0 # number of collector unit in ports (default = 0)
-gpgpu_operand_collector_num_in_ports_tensor_core                    1 # number of collector unit in ports (default = 1)
-gpgpu_operand_collector_num_in_ports_mem                    1 # number of collector unit in ports (default = 1)
-gpgpu_operand_collector_num_in_ports_gen                    8 # number of collector unit in ports (default = 0)
-gpgpu_operand_collector_num_out_ports_sp                    1 # number of collector unit in ports (default = 1)
-gpgpu_operand_collector_num_out_ports_dp                    0 # number of collector unit in ports (default = 0)
-gpgpu_operand_collector_num_out_ports_sfu                    1 # number of collector unit in ports (default = 1)
-gpgpu_operand_collector_num_out_ports_int                    0 # number of collector unit in ports (default = 0)
-gpgpu_operand_collector_num_out_ports_tensor_core                    1 # number of collector unit in ports (default = 1)
-gpgpu_operand_collector_num_out_ports_mem                    1 # number of collector unit in ports (default = 1)
-gpgpu_operand_collector_num_out_ports_gen                    8 # number of collector unit in ports (default = 0)
-gpgpu_coalesce_arch                   75 # Coalescing arch (GT200 = 13, Fermi = 20)
-gpgpu_num_sched_per_core                    4 # Number of warp schedulers per core
-gpgpu_max_insn_issue_per_warp                    1 # Max number of instructions that can be issued per warp in one cycle by scheduler (either 1 or 2)
-gpgpu_dual_issue_diff_exec_units                    1 # should dual issue use two different execution unit resources (Default = 1)
-gpgpu_simt_core_sim_order                    1 # Select the simulation order of cores in a cluster (0=Fix, 1=Round-Robin)
-gpgpu_pipeline_widths 4,4,4,4,4,4,4,4,4,4,8,4,4 # Pipeline widths ID_OC_SP,ID_OC_DP,ID_OC_INT,ID_OC_SFU,ID_OC_MEM,OC_EX_SP,OC_EX_DP,OC_EX_INT,OC_EX_SFU,OC_EX_MEM,EX_WB,ID_OC_TENSOR_CORE,OC_EX_TENSOR_CORE
-gpgpu_tensor_core_avail                    1 # Tensor Core Available (default=0)
-gpgpu_num_sp_units                     4 # Number of SP units (default=1)
-gpgpu_num_dp_units                     4 # Number of DP units (default=0)
-gpgpu_num_int_units                    4 # Number of INT units (default=0)
-gpgpu_num_sfu_units                    4 # Number of SF units (default=1)
-gpgpu_num_tensor_core_units                    4 # Number of tensor_core units (default=1)
-gpgpu_num_mem_units                    1 # Number if ldst units (default=1) WARNING: not hooked up to anything
-kernelBased                            0 # Does the approximator work as kernel based (default = 0)
-kernelId                               0 # Kernel ids where the approximation applied 
-hybridApproximation                    0 # Hybrid approximator (default = 0)
-errorPercentage                       50 # Error percentage (number of max flushed accesses)
-l1dApproximator                        0 # Memory access delete unit (default = 0)
-l1dSlicingAccessInterval                 5000 # Slice access window length (default = 1000)
-l2Approximator                         0 # Memory access delete unit (default = 0)
-l2SlicingAccessInterval                 5000 # Slice access window length (default = 1000)
-smOccupancy                            0 # sm occupancy (default = 0)
-smSlicingInterval                   5000 # Slice access window length (default = 1000)
-gpgpu_scheduler                      lrr # Scheduler configuration: < lrr | gto | two_level_active > If two_level_active:<num_active_warps>:<inner_prioritization>:<outer_prioritization>For complete list of prioritization values see shader.h enum scheduler_prioritization_typeDefault: gto
-gpgpu_concurrent_kernel_sm                    0 # Support concurrent kernels on a SM (default = disabled)
-gpgpu_perfect_inst_const_cache                    1 # perfect inst and const cache mode, so all inst and const hits in the cache(default = disabled)
-gpgpu_inst_fetch_throughput                    4 # the number of fetched intruction per warp each cycle
-gpgpu_reg_file_port_throughput                    2 # the number ports of the register file
-specialized_unit_1         0,4,4,4,4,BRA # specialized unit config {<enabled>,<num_units>:<latency>:<initiation>,<ID_OC_SPEC>:<OC_EX_SPEC>,<NAME>}
-specialized_unit_2         0,4,4,4,4,BRA # specialized unit config {<enabled>,<num_units>:<latency>:<initiation>,<ID_OC_SPEC>:<OC_EX_SPEC>,<NAME>}
-specialized_unit_3         0,4,4,4,4,BRA # specialized unit config {<enabled>,<num_units>:<latency>:<initiation>,<ID_OC_SPEC>:<OC_EX_SPEC>,<NAME>}
-specialized_unit_4         0,4,4,4,4,BRA # specialized unit config {<enabled>,<num_units>:<latency>:<initiation>,<ID_OC_SPEC>:<OC_EX_SPEC>,<NAME>}
-specialized_unit_5         0,4,4,4,4,BRA # specialized unit config {<enabled>,<num_units>:<latency>:<initiation>,<ID_OC_SPEC>:<OC_EX_SPEC>,<NAME>}
-specialized_unit_6         0,4,4,4,4,BRA # specialized unit config {<enabled>,<num_units>:<latency>:<initiation>,<ID_OC_SPEC>:<OC_EX_SPEC>,<NAME>}
-specialized_unit_7         0,4,4,4,4,BRA # specialized unit config {<enabled>,<num_units>:<latency>:<initiation>,<ID_OC_SPEC>:<OC_EX_SPEC>,<NAME>}
-specialized_unit_8         0,4,4,4,4,BRA # specialized unit config {<enabled>,<num_units>:<latency>:<initiation>,<ID_OC_SPEC>:<OC_EX_SPEC>,<NAME>}
-gpgpu_perf_sim_memcpy                    1 # Fill the L2 cache on memcpy
-gpgpu_simple_dram_model                    0 # simple_dram_model with fixed latency and BW
-gpgpu_dram_scheduler                    1 # 0 = fifo, 1 = FR-FCFS (defaul)
-gpgpu_dram_partition_queues          64:64:64:64 # i2$:$2d:d2$:$2i
-l2_ideal                               0 # Use a ideal L2 cache that always hit
-gpgpu_cache:dl2     S:64:128:16,L:B:m:L:P,A:192:4,32:0,32 # unified banked L2 data cache config  {<nsets>:<bsize>:<assoc>,<rep>:<wr>:<alloc>:<wr_alloc>,<mshr>:<N>:<merge>,<mq>}
-gpgpu_cache:dl2_texture_only                    0 # L2 cache used for texture only
-gpgpu_n_mem                           12 # number of memory modules (e.g. memory controllers) in gpu
-gpgpu_n_sub_partition_per_mchannel                    2 # number of memory subpartition in each memory module
-gpgpu_n_mem_per_ctrlr                    1 # number of memory chips per memory controller
-gpgpu_memlatency_stat                   14 # track and display latency statistics 0x2 enables MC, 0x4 enables queue logs
-gpgpu_frfcfs_dram_sched_queue_size                   64 # 0 = unlimited (default); # entries per chip
-gpgpu_dram_return_queue_size                  192 # 0 = unlimited (default); # entries per chip
-gpgpu_dram_buswidth                    2 # default = 4 bytes (8 bytes per cycle at DDR)
-gpgpu_dram_burst_length                   16 # Burst length of each DRAM request (default = 4 data bus cycle)
-dram_data_command_freq_ratio                    4 # Frequency ratio between DRAM data bus and command bus (default = 2 times, i.e. DDR)
-gpgpu_dram_timing_opt nbk=16:CCD=4:RRD=12:RCD=24:RAS=55:RP=24:RC=78:CL=24:WL=8:CDLR=10:WR=24:nbkgrp=4:CCDL=6:RTPL=4 # DRAM timing parameters = {nbk:tCCD:tRRD:tRCD:tRAS:tRP:tRC:CL:WL:tCDLR:tWR:nbkgrp:tCCDL:tRTPL}
-gpgpu_l2_rop_latency                  194 # ROP queue latency (default 85)
-dram_latency                          96 # DRAM latency (default 30)
-dram_dual_bus_interface                    0 # dual_bus_interface (default = 0) 
-dram_bnk_indexing_policy                    0 # dram_bnk_indexing_policy (0 = normal indexing, 1 = Xoring with the higher bits) (Default = 0)
-dram_bnkgrp_indexing_policy                    1 # dram_bnkgrp_indexing_policy (0 = take higher bits, 1 = take lower bits) (Default = 0)
-dram_seperate_write_queue_enable                    0 # Seperate_Write_Queue_Enable
-dram_write_queue_size             32:28:16 # Write_Queue_Size
-dram_elimnate_rw_turnaround                    0 # elimnate_rw_turnaround i.e set tWTR and tRTW = 0
-icnt_flit_size                        40 # icnt_flit_size
-icnt_flit_size                        40 # icnt_flit_size
-mem_profiler                           0 # memory access runtime profiling (0 = not enabled)
-gpgpu_mem_addr_mapping dramid@8;00000000.00000000.00000000.00000000.0000RRRR.RRRRRRRR.RBBBCCCC.BCCSSSSS # mapping memory address to dram model {dramid@<start bit>;<memory address map>}
-gpgpu_mem_addr_test                    0 # run sweep test to check address mapping for aliased address
-gpgpu_mem_address_mask                    1 # 0 = old addressing mask, 1 = new addressing mask, 2 = new add. mask + flipped bank sel and chip sel bits
-gpgpu_memory_partition_indexing                    0 # 0 = no indexing, 1 = bitwise xoring, 2 = IPoly, 3 = custom indexing
-accelwattch_xml_file accelwattch_sass_sim.xml # AccelWattch XML file
-power_simulation_enabled                    1 # Turn on power simulator (1=On, 0=Off)
-power_per_cycle_dump                    1 # Dump detailed power output each cycle
-hw_perf_file_name            hw_perf.csv # Hardware Performance Statistics file
-hw_perf_bench_name    hw_perf_bench_name # Kernel Name in Hardware Performance Statistics file
-power_simulation_mode                    0 # Switch performance counter input for power simulation (0=Sim, 1=HW, 2=HW-Sim Hybrid)
-dvfs_enabled                           1 # Turn on DVFS for power model
-aggregate_power_stats                    0 # Accumulate power across all kernels
-accelwattch_hybrid_perfsim_L1_RH                    0 # Get L1 Read Hits for Accelwattch-Hybrid from Accel-Sim
-accelwattch_hybrid_perfsim_L1_RM                    0 # Get L1 Read Misses for Accelwattch-Hybrid from Accel-Sim
-accelwattch_hybrid_perfsim_L1_WH                    0 # Get L1 Write Hits for Accelwattch-Hybrid from Accel-Sim
-accelwattch_hybrid_perfsim_L1_WM                    0 # Get L1 Write Misses for Accelwattch-Hybrid from Accel-Sim
-accelwattch_hybrid_perfsim_L2_RH                    0 # Get L2 Read Hits for Accelwattch-Hybrid from Accel-Sim
-accelwattch_hybrid_perfsim_L2_RM                    0 # Get L2 Read Misses for Accelwattch-Hybrid from Accel-Sim
-accelwattch_hybrid_perfsim_L2_WH                    0 # Get L2 Write Hits for Accelwattch-Hybrid from Accel-Sim
-accelwattch_hybrid_perfsim_L2_WM                    0 # Get L2 Write Misses for Accelwattch-Hybrid from Accel-Sim
-accelwattch_hybrid_perfsim_CC_ACC                    0 # Get Constant Cache Acesses for Accelwattch-Hybrid from Accel-Sim
-accelwattch_hybrid_perfsim_SHARED_ACC                    0 # Get Shared Memory Acesses for Accelwattch-Hybrid from Accel-Sim
-accelwattch_hybrid_perfsim_DRAM_RD                    0 # Get DRAM Reads for Accelwattch-Hybrid from Accel-Sim
-accelwattch_hybrid_perfsim_DRAM_WR                    0 # Get DRAM Writes for Accelwattch-Hybrid from Accel-Sim
-accelwattch_hybrid_perfsim_NOC                    0 # Get Interconnect Acesses for Accelwattch-Hybrid from Accel-Sim
-accelwattch_hybrid_perfsim_PIPE_DUTY                    0 # Get Pipeline Duty Cycle Acesses for Accelwattch-Hybrid from Accel-Sim
-accelwattch_hybrid_perfsim_NUM_SM_IDLE                    0 # Get Number of Idle SMs for Accelwattch-Hybrid from Accel-Sim
-accelwattch_hybrid_perfsim_CYCLES                    0 # Get Executed Cycles for Accelwattch-Hybrid from Accel-Sim
-accelwattch_hybrid_perfsim_VOLTAGE                    0 # Get Chip Voltage for Accelwattch-Hybrid from Accel-Sim
-power_trace_enabled                    0 # produce a file for the power trace (1=On, 0=Off)
-power_trace_zlevel                     0 # Compression level of the power trace output log (0=no comp, 9=highest)
-steady_power_levels_enabled                    0 # produce a file for the steady power levels (1=On, 0=Off)
-steady_state_definition                  8:4 # allowed deviation:number of samples
-gpgpu_max_cycle                        0 # terminates gpu simulation early (0 = no limit)
-gpgpu_max_insn                         0 # terminates gpu simulation early (0 = no limit)
-gpgpu_max_cta                          0 # terminates gpu simulation early (0 = no limit)
-gpgpu_max_completed_cta                    0 # terminates gpu simulation early (0 = no limit)
-gpgpu_runtime_stat                  1000 # display runtime statistics such as dram utilization {<freq>:<flag>}
-liveness_message_freq                    1 # Minimum number of seconds between simulation liveness messages (0 = always print)
-gpgpu_compute_capability_major                    7 # Major compute capability version number
-gpgpu_compute_capability_minor                    5 # Minor compute capability version number
-gpgpu_flush_l1_cache                    1 # Flush L1 cache at the end of each kernel call
-gpgpu_flush_l2_cache                    0 # Flush L2 cache at the end of each kernel call
-gpgpu_deadlock_detect                    1 # Stop the simulation at deadlock (1=on (default), 0=off)
-gpgpu_ptx_instruction_classification                    0 # if enabled will classify ptx instruction types per kernel (Max 255 kernels now)
-gpgpu_ptx_sim_mode                     0 # Select between Performance (default) or Functional simulation (1)
-gpgpu_clock_domains 1365:1365:1365:3500.5 # Clock Domain Frequencies in MhZ {<Core Clock>:<ICNT Clock>:<L2 Clock>:<DRAM Clock>}
-gpgpu_max_concurrent_kernel                  128 # maximum kernels that can run concurrently on GPU, set this value according to max resident grids for your compute capability
-gpgpu_cflog_interval                    0 # Interval between each snapshot in control flow logger
-visualizer_enabled                     0 # Turn on visualizer output (1=On, 0=Off)
-visualizer_outputfile                 NULL # Specifies the output log file for visualizer
-visualizer_zlevel                      6 # Compression level of the visualizer output log (0=no comp, 9=highest)
-gpgpu_stack_size_limit                 1024 # GPU thread stack size
-gpgpu_heap_size_limit              8388608 # GPU malloc heap size 
-gpgpu_runtime_sync_depth_limit                    2 # GPU device runtime synchronize depth
-gpgpu_runtime_pending_launch_count_limit                 2048 # GPU device runtime pending launch count
-trace_enabled                          0 # Turn on traces
-trace_components                    none # comma seperated list of traces to enable. Complete list found in trace_streams.tup. Default none
-trace_sampling_core                    0 # The core which is printed using CORE_DPRINTF. Default 0
-trace_sampling_memory_partition                   -1 # The memory partition which is printed using MEMPART_DPRINTF. Default -1 (i.e. all)
-enable_ptx_file_line_stats                    1 # Turn on PTX source line statistic profiling. (1 = On)
-ptx_line_stats_filename gpgpu_inst_stats.txt # Output file for PTX source line statistics.
-gpgpu_kernel_launch_latency                 5000 # Kernel launch latency in cycles. Default: 0
-gpgpu_cdp_enabled                      0 # Turn on CDP
-gpgpu_TB_launch_latency                    0 # thread block launch latency in cycles. Default: 0
-mem_runtime_stat                     100 # memory access runtime profiling sampling freq
-L1D_metrics                            0 # memory access runtime profiling for L1 data cache
-noncoal_metrics                        0 # memory access runtime profiling for shared memory
-L2_metrics                             0 # memory access runtime profiling for L2 cache
-DRAM_metrics                           0 # memory access runtime profiling for DRAM
-Shmem_metrics                          0 # memory access runtime profiling for noncoalesced accesses
-store_enable                           0 # Enable stores for memory profiling
-accumulate_stats                       0 # Accumulate stats for the memory profiling
-dump_enable                            0 # Process dump enable flag - (def = 0)
-flush_l1d                              0 # Enable flushings for L1D caches - (default = 0)
-flush_l2                               0 # Enable flushings for L2 caches - (default = 0)
-flush_dram                             0 # Enable flushings for DRAM - (default = 0)
-flush_noncoalesceds                    0 # Enable flushings for non coalesced accesses - (default = 0)
-flush_shmems                           0 # Enable flushings for shared memory accesses - (default = 0)
-error_percentage                       2 # Error percentage for the flushes - (default = 1)
-flush_acc_type                         2 # Flush access types
-monitor_sampling_cycle                  200 # Monitoring sampling cycle - (default = 5000)
DRAM Timing Options:
nbk                                    16 # number of banks
CCD                                     4 # column to column delay
RRD                                    12 # minimal delay between activation of rows in different banks
RCD                                    24 # row to column delay
RAS                                    55 # time needed to activate row
RP                                     24 # time needed to precharge (deactivate) row
RC                                     78 # row cycle time
CDLR                                   10 # switching from write to read (changes tWTR)
WR                                     24 # last data-in to row precharge
CL                                     24 # CAS latency
WL                                      8 # Write latency
nbkgrp                                  4 # number of bank groups
CCDL                                    6 # column to column delay between accesses to different bank groups
RTPL                                    4 # read to precharge delay between accesses to different bank groups
Total number of memory sub partition = 24
addr_dec_mask[CHIP]  = 0000000000000000 	high:64 low:0
addr_dec_mask[BK]    = 0000000000007080 	high:15 low:7
addr_dec_mask[ROW]   = 000000000fff8000 	high:28 low:15
addr_dec_mask[COL]   = 0000000000000f7f 	high:12 low:0
addr_dec_mask[BURST] = 000000000000001f 	high:5 low:0
sub_partition_id_mask = 0000000000000080
GPGPU-Sim uArch: clock freqs: 1365000000.000000:1365000000.000000:1365000000.000000:3500500000.000000
GPGPU-Sim uArch: clock periods: 0.00000000073260073260:0.00000000073260073260:0.00000000073260073260:0.00000000028567347522
*** Initializing Memory Statistics ***
GPGPU-Sim uArch: performance model initialization complete.
Paral3a20af4c35d3e79f08a3ea4e32e9b0d8  /home/pars/Documents/expSetups/a3/srad
Extracting PTX file and ptxas options    1: srad.1.sm_75.ptx -arch=sm_75
lel calisiyor
self exe links to: /home/pars/Documents/expSetups/a3/srad
self exe links to: /home/pars/Documents/expSetups/a3/srad
11.0
GPGPU-Sim PTX: __cudaRegisterFatBinary, fat_cubin_handle = 1, filename=default
self exe links to: /home/pars/Documents/expSetups/a3/srad
Running md5sum using "md5sum /home/pars/Documents/expSetups/a3/srad "
self exe links to: /home/pars/Documents/expSetups/a3/srad
Extracting specific PTX file named srad.1.sm_75.ptx 
GPGPU-Sim PTX: __cudaRegisterFunction _Z11srad_cuda_2PfS_S_S_S_S_iiff : hostFun 0x0x55e978c5d151, fat_cubin_handle = 1
GPGPU-Sim PTX: Parsing srad.1.sm_75.ptx
GPGPU-Sim PTX: allocating shared region for "_ZZ11srad_cuda_1PfS_S_S_S_S_iifE4temp" from 0x0 to 0x400 (shared memory space)
GPGPU-Sim PTX: allocating shared region for "_ZZ11srad_cuda_1PfS_S_S_S_S_iifE11temp_result" from 0x400 to 0x800 (shared memory space)
GPGPU-Sim PTX: allocating shared region for "_ZZ11srad_cuda_1PfS_S_S_S_S_iifE5north" from 0x800 to 0xc00 (shared memory space)
GPGPU-Sim PTX: allocating shared region for "_ZZ11srad_cuda_1PfS_S_S_S_S_iifE5south" from 0xc00 to 0x1000 (shared memory space)
GPGPU-Sim PTX: allocating shared region for "_ZZ11srad_cuda_1PfS_S_S_S_S_iifE4east" from 0x1000 to 0x1400 (shared memory space)
GPGPU-Sim PTX: allocating shared region for "_ZZ11srad_cuda_1PfS_S_S_S_S_iifE4west" from 0x1400 to 0x1800 (shared memory space)
GPGPU-Sim PTX: instruction assembly for function '_Z11srad_cuda_1PfS_S_S_S_S_iif'...   done.
GPGPU-Sim PTX: allocating shared region for "_ZZ11srad_cuda_2PfS_S_S_S_S_iiffE7south_c" from 0x0 to 0x400 (shared memory space)
GPGPU-Sim PTX: allocating shared region for "_ZZ11srad_cuda_2PfS_S_S_S_S_iiffE6east_c" from 0x400 to 0x800 (shared memory space)
GPGPU-Sim PTX: allocating shared region for "_ZZ11srad_cuda_2PfS_S_S_S_S_iiffE11c_cuda_temp" from 0x800 to 0xc00 (shared memory space)
GPGPU-Sim PTX: allocating shared region for "_ZZ11srad_cuda_2PfS_S_S_S_S_iiffE13c_cuda_result" from 0xc00 to 0x1000 (shared memory space)
GPGPU-Sim PTX: allocating shared region for "_ZZ11srad_cuda_2PfS_S_S_S_S_iiffE4temp" from 0x1000 to 0x1400 (shared memory space)
GPGPU-Sim PTX: instruction assembly for function '_Z11srad_cuda_2PfS_S_S_S_S_iiff'...   done.
GPGPU-Sim PTX: finished parsing EMBEDDED .ptx file srad.1.sm_75.ptx
GPGPU-Sim PTX: loading globals with explicit initializers... 
GPGPU-Sim PTX: finished loading globals (0 bytes total).
GPGPU-Sim PTX: loading constants with explicit initializers...  done.
GPGPU-Sim PTX: Loading PTXInfo from srad.1.sm_75.ptx
GPGPU-Sim PTX: Kernel '_Z11srad_cuda_2PfS_S_S_S_S_iiff' : regs=26, lmem=0, smem=5120, cmem=416
GPGPU-Sim PTX: Kernel '_Z11srad_cuda_1PfS_S_S_S_S_iif' : regs=21, lmem=0, smem=6144, cmem=412
GPGPU-Sim PTX: __cudaRegisterFunction _Z11srad_cuda_1PfS_S_S_S_S_iif : hostFun 0x0x55e978c5ce7f, fat_cubin_handle = 1
WG size of kernel = 16 X 16
Randomizing the input matrix
Start the SRAD main loop
GPGPU-Sim PTX: Setting up arguments for 8 bytes starting at 0x7ffd537bf178..
GPGPU-Sim PTX: Setting up arguments for 8 bytes starting at 0x7ffd537bf170..
GPGPU-Sim PTX: Setting up arguments for 8 bytes starting at 0x7ffd537bf168..
GPGPU-Sim PTX: Setting up arguments for 8 bytes starting at 0x7ffd537bf160..
GPGPU-Sim PTX: Setting up arguments for 8 bytes starting at 0x7ffd537bf158..
GPGPU-Sim PTX: Setting up arguments for 8 bytes starting at 0x7ffd537bf150..
GPGPU-Sim PTX: Setting up arguments for 4 bytes starting at 0x7ffd537bf210..
GPGPU-Sim PTX: Setting up arguments for 4 bytes starting at 0x7ffd537bf218..
GPGPU-Sim PTX: Setting up arguments for 4 bytes starting at 0x7ffd537bf14c..

GPGPU-Sim PTX: cudaLaunch for 0x0x55e978c5ce7f (mode=performance simulation) on stream 0
GPGPU-Sim PTX: finding reconvergence points for '_Z11srad_cuda_1PfS_S_S_S_S_iif'...
GPGPU-Sim PTX: Finding dominators for '_Z11srad_cuda_1PfS_S_S_S_S_iif'...
GPGPU-Sim PTX: Finding immediate dominators for '_Z11srad_cuda_1PfS_S_S_S_S_iif'...
GPGPU-Sim PTX: Finding postdominators for '_Z11srad_cuda_1PfS_S_S_S_S_iif'...
GPGPU-Sim PTX: Finding immediate postdominators for '_Z11srad_cuda_1PfS_S_S_S_S_iif'...
GPGPU-Sim PTX: pre-decoding instructions for '_Z11srad_cuda_1PfS_S_S_S_S_iif'...
GPGPU-Sim PTX: reconvergence points for _Z11srad_cuda_1PfS_S_S_S_S_iif...
GPGPU-Sim PTX:  1 (potential) branch divergence @  PC=0x148 (srad.1.sm_75.ptx:97) @%p1 bra $L__BB0_3;
GPGPU-Sim PTX:    immediate post dominator      @  PC=0x1d0 (srad.1.sm_75.ptx:120) add.s32 %r56, %r8, -1;
GPGPU-Sim PTX:  2 (potential) branch divergence @  PC=0x168 (srad.1.sm_75.ptx:102) @%p2 bra $L__BB0_4;
GPGPU-Sim PTX:    immediate post dominator      @  PC=0x1d0 (srad.1.sm_75.ptx:120) add.s32 %r56, %r8, -1;
GPGPU-Sim PTX:  3 (potential) branch divergence @  PC=0x1a0 (srad.1.sm_75.ptx:110) bra.uni $L__BB0_4;
GPGPU-Sim PTX:    immediate post dominator      @  PC=0x1d0 (srad.1.sm_75.ptx:120) add.s32 %r56, %r8, -1;
GPGPU-Sim PTX:  4 (potential) branch divergence @  PC=0x248 (srad.1.sm_75.ptx:135) @%p3 bra $L__BB0_7;
GPGPU-Sim PTX:    immediate post dominator      @  PC=0x2d8 (srad.1.sm_75.ptx:159) bar.sync 0;
GPGPU-Sim PTX:  5 (potential) branch divergence @  PC=0x268 (srad.1.sm_75.ptx:140) @%p4 bra $L__BB0_8;
GPGPU-Sim PTX:    immediate post dominator      @  PC=0x2d8 (srad.1.sm_75.ptx:159) bar.sync 0;
GPGPU-Sim PTX:  6 (potential) branch divergence @  PC=0x2a8 (srad.1.sm_75.ptx:149) bra.uni $L__BB0_8;
GPGPU-Sim PTX:    immediate post dominator      @  PC=0x2d8 (srad.1.sm_75.ptx:159) bar.sync 0;
GPGPU-Sim PTX:  7 (potential) branch divergence @  PC=0x338 (srad.1.sm_75.ptx:171) @%p5 bra $L__BB0_24;
GPGPU-Sim PTX:    immediate post dominator      @  PC=0x5b8 (srad.1.sm_75.ptx:282) ld.shared.f32 %f49, [%r113];
GPGPU-Sim PTX:  8 (potential) branch divergence @  PC=0x358 (srad.1.sm_75.ptx:176) @%p8 bra $L__BB0_23;
GPGPU-Sim PTX:    immediate post dominator      @  PC=0x5b8 (srad.1.sm_75.ptx:282) ld.shared.f32 %f49, [%r113];
GPGPU-Sim PTX:  9 (potential) branch divergence @  PC=0x360 (srad.1.sm_75.ptx:177) bra.uni $L__BB0_10;
GPGPU-Sim PTX:    immediate post dominator      @  PC=0x3d8 (srad.1.sm_75.ptx:198) setp.eq.s32 %p10, %r6, 15;
GPGPU-Sim PTX: 10 (potential) branch divergence @  PC=0x398 (srad.1.sm_75.ptx:186) bra.uni $L__BB0_25;
GPGPU-Sim PTX:    immediate post dominator      @  PC=0x5b8 (srad.1.sm_75.ptx:282) ld.shared.f32 %f49, [%r113];
GPGPU-Sim PTX: 11 (potential) branch divergence @  PC=0x3d0 (srad.1.sm_75.ptx:195) bra.uni $L__BB0_25;
GPGPU-Sim PTX:    immediate post dominator      @  PC=0x5b8 (srad.1.sm_75.ptx:282) ld.shared.f32 %f49, [%r113];
GPGPU-Sim PTX: 12 (potential) branch divergence @  PC=0x3e8 (srad.1.sm_75.ptx:200) @%p11 bra $L__BB0_22;
GPGPU-Sim PTX:    immediate post dominator      @  PC=0x5b8 (srad.1.sm_75.ptx:282) ld.shared.f32 %f49, [%r113];
GPGPU-Sim PTX: 13 (potential) branch divergence @  PC=0x3f0 (srad.1.sm_75.ptx:201) bra.uni $L__BB0_11;
GPGPU-Sim PTX:    immediate post dominator      @  PC=0x430 (srad.1.sm_75.ptx:213) setp.eq.s32 %p13, %r9, 0;
GPGPU-Sim PTX: 14 (potential) branch divergence @  PC=0x428 (srad.1.sm_75.ptx:210) bra.uni $L__BB0_25;
GPGPU-Sim PTX:    immediate post dominator      @  PC=0x5b8 (srad.1.sm_75.ptx:282) ld.shared.f32 %f49, [%r113];
GPGPU-Sim PTX: 15 (potential) branch divergence @  PC=0x440 (srad.1.sm_75.ptx:215) @%p14 bra $L__BB0_21;
GPGPU-Sim PTX:    immediate post dominator      @  PC=0x5b8 (srad.1.sm_75.ptx:282) ld.shared.f32 %f49, [%r113];
GPGPU-Sim PTX: 16 (potential) branch divergence @  PC=0x448 (srad.1.sm_75.ptx:216) bra.uni $L__BB0_12;
GPGPU-Sim PTX:    immediate post dominator      @  PC=0x488 (srad.1.sm_75.ptx:228) add.s32 %r16, %r69, %r40;
GPGPU-Sim PTX: 17 (potential) branch divergence @  PC=0x480 (srad.1.sm_75.ptx:225) bra.uni $L__BB0_25;
GPGPU-Sim PTX:    immediate post dominator      @  PC=0x5b8 (srad.1.sm_75.ptx:282) ld.shared.f32 %f49, [%r113];
GPGPU-Sim PTX: 18 (potential) branch divergence @  PC=0x490 (srad.1.sm_75.ptx:229) @%p6 bra $L__BB0_20;
GPGPU-Sim PTX:    immediate post dominator      @  PC=0x5b8 (srad.1.sm_75.ptx:282) ld.shared.f32 %f49, [%r113];
GPGPU-Sim PTX: 19 (potential) branch divergence @  PC=0x498 (srad.1.sm_75.ptx:231) @%p7 bra $L__BB0_19;
GPGPU-Sim PTX:    immediate post dominator      @  PC=0x5b8 (srad.1.sm_75.ptx:282) ld.shared.f32 %f49, [%r113];
GPGPU-Sim PTX: 20 (potential) branch divergence @  PC=0x4a0 (srad.1.sm_75.ptx:232) bra.uni $L__BB0_14;
GPGPU-Sim PTX:    immediate post dominator      @  PC=0x520 (srad.1.sm_75.ptx:254) @%p10 bra $L__BB0_18;
GPGPU-Sim PTX: 21 (potential) branch divergence @  PC=0x4d8 (srad.1.sm_75.ptx:241) bra.uni $L__BB0_25;
GPGPU-Sim PTX:    immediate post dominator      @  PC=0x5b8 (srad.1.sm_75.ptx:282) ld.shared.f32 %f49, [%r113];
GPGPU-Sim PTX: 22 (potential) branch divergence @  PC=0x518 (srad.1.sm_75.ptx:251) bra.uni $L__BB0_25;
GPGPU-Sim PTX:    immediate post dominator      @  PC=0x5b8 (srad.1.sm_75.ptx:282) ld.shared.f32 %f49, [%r113];
GPGPU-Sim PTX: 23 (potential) branch divergence @  PC=0x520 (srad.1.sm_75.ptx:254) @%p10 bra $L__BB0_18;
GPGPU-Sim PTX:    immediate post dominator      @  PC=0x5b8 (srad.1.sm_75.ptx:282) ld.shared.f32 %f49, [%r113];
GPGPU-Sim PTX: 24 (potential) branch divergence @  PC=0x528 (srad.1.sm_75.ptx:255) bra.uni $L__BB0_15;
GPGPU-Sim PTX:    immediate post dominator      @  PC=0x570 (srad.1.sm_75.ptx:268) ld.shared.f32 %f33, [%r15+-64];
GPGPU-Sim PTX: 25 (potential) branch divergence @  PC=0x568 (srad.1.sm_75.ptx:265) bra.uni $L__BB0_25;
GPGPU-Sim PTX:    immediate post dominator      @  PC=0x5b8 (srad.1.sm_75.ptx:282) ld.shared.f32 %f49, [%r113];
GPGPU-Sim PTX: 26 (potential) branch divergence @  PC=0x590 (srad.1.sm_75.ptx:272) @%p13 bra $L__BB0_17;
GPGPU-Sim PTX:    immediate post dominator      @  PC=0x5b8 (srad.1.sm_75.ptx:282) ld.shared.f32 %f49, [%r113];
GPGPU-Sim PTX: 27 (potential) branch divergence @  PC=0x5a8 (srad.1.sm_75.ptx:276) bra.uni $L__BB0_25;
GPGPU-Sim PTX:    immediate post dominator      @  PC=0x5b8 (srad.1.sm_75.ptx:282) ld.shared.f32 %f49, [%r113];
GPGPU-Sim PTX: 28 (potential) branch divergence @  PC=0x6e0 (srad.1.sm_75.ptx:319) @%p19 bra $L__BB0_29;
GPGPU-Sim PTX:    immediate post dominator      @  PC=0x740 (srad.1.sm_75.ptx:341) cvta.to.global.u64 %rd24, %rd4;
GPGPU-Sim PTX: 29 (potential) branch divergence @  PC=0x6e8 (srad.1.sm_75.ptx:320) bra.uni $L__BB0_26;
GPGPU-Sim PTX:    immediate post dominator      @  PC=0x708 (srad.1.sm_75.ptx:328) setp.gt.f32 %p20, %f22, 0f3F800000;
GPGPU-Sim PTX: 30 (potential) branch divergence @  PC=0x700 (srad.1.sm_75.ptx:325) bra.uni $L__BB0_30;
GPGPU-Sim PTX:    immediate post dominator      @  PC=0x740 (srad.1.sm_75.ptx:341) cvta.to.global.u64 %rd24, %rd4;
GPGPU-Sim PTX: 31 (potential) branch divergence @  PC=0x710 (srad.1.sm_75.ptx:329) @%p20 bra $L__BB0_28;
GPGPU-Sim PTX:    immediate post dominator      @  PC=0x740 (srad.1.sm_75.ptx:341) cvta.to.global.u64 %rd24, %rd4;
GPGPU-Sim PTX: 32 (potential) branch divergence @  PC=0x718 (srad.1.sm_75.ptx:330) bra.uni $L__BB0_27;
GPGPU-Sim PTX:    immediate post dominator      @  PC=0x738 (srad.1.sm_75.ptx:338) st.shared.f32 [%r30], %f22;
GPGPU-Sim PTX: 33 (potential) branch divergence @  PC=0x730 (srad.1.sm_75.ptx:335) bra.uni $L__BB0_30;
GPGPU-Sim PTX:    immediate post dominator      @  PC=0x740 (srad.1.sm_75.ptx:341) cvta.to.global.u64 %rd24, %rd4;
GPGPU-Sim PTX: ... end of reconvergence points for _Z11srad_cuda_1PfS_S_S_S_S_iif
GPGPU-Sim PTX: ... done pre-decoding instructions for '_Z11srad_cuda_1PfS_S_S_S_S_iif'.
GPGPU-Sim PTX: pushing kernel '_Z11srad_cuda_1PfS_S_S_S_S_iif' to stream 0, gridDim= (128,128,1) blockDim = (16,16,1) 
GPGPU-Sim uArch: Shader 0 bind to kernel 1 '_Z11srad_cuda_1PfS_S_S_S_S_iif'
GPGPU-Sim uArch: CTA/core = 4, limited by: threads
GPGPU-Sim: Reconfigure L1 cache to 64KB
GPGPU-Sim uArch: Shader 1 bind to kernel 1 '_Z11srad_cuda_1PfS_S_S_S_S_iif'
GPGPU-Sim uArch: Shader 2 bind to kernel 1 '_Z11srad_cuda_1PfS_S_S_S_S_iif'
GPGPU-Sim uArch: Shader 3 bind to kernel 1 '_Z11srad_cuda_1PfS_S_S_S_S_iif'
GPGPU-Sim uArch: Shader 4 bind to kernel 1 '_Z11srad_cuda_1PfS_S_S_S_S_iif'
GPGPU-Sim uArch: Shader 5 bind to kernel 1 '_Z11srad_cuda_1PfS_S_S_S_S_iif'
GPGPU-Sim uArch: Shader 6 bind to kernel 1 '_Z11srad_cuda_1PfS_S_S_S_S_iif'
GPGPU-Sim uArch: Shader 7 bind to kernel 1 '_Z11srad_cuda_1PfS_S_S_S_S_iif'
GPGPU-Sim uArch: Shader 8 bind to kernel 1 '_Z11srad_cuda_1PfS_S_S_S_S_iif'
GPGPU-Sim uArch: Shader 9 bind to kernel 1 '_Z11srad_cuda_1PfS_S_S_S_S_iif'
GPGPU-Sim uArch: Shader 10 bind to kernel 1 '_Z11srad_cuda_1PfS_S_S_S_S_iif'
GPGPU-Sim uArch: Shader 11 bind to kernel 1 '_Z11srad_cuda_1PfS_S_S_S_S_iif'
GPGPU-Sim uArch: Shader 12 bind to kernel 1 '_Z11srad_cuda_1PfS_S_S_S_S_iif'
GPGPU-Sim uArch: Shader 13 bind to kernel 1 '_Z11srad_cuda_1PfS_S_S_S_S_iif'
GPGPU-Sim uArch: Shader 14 bind to kernel 1 '_Z11srad_cuda_1PfS_S_S_S_S_iif'
GPGPU-Sim uArch: Shader 15 bind to kernel 1 '_Z11srad_cuda_1PfS_S_S_S_S_iif'
GPGPU-Sim uArch: Shader 16 bind to kernel 1 '_Z11srad_cuda_1PfS_S_S_S_S_iif'
GPGPU-Sim uArch: Shader 17 bind to kernel 1 '_Z11srad_cuda_1PfS_S_S_S_S_iif'
GPGPU-Sim uArch: Shader 18 bind to kernel 1 '_Z11srad_cuda_1PfS_S_S_S_S_iif'
GPGPU-Sim uArch: Shader 19 bind to kernel 1 '_Z11srad_cuda_1PfS_S_S_S_S_iif'
GPGPU-Sim uArch: Shader 20 bind to kernel 1 '_Z11srad_cuda_1PfS_S_S_S_S_iif'
GPGPU-Sim uArch: Shader 21 bind to kernel 1 '_Z11srad_cuda_1PfS_S_S_S_S_iif'
GPGPU-Sim uArch: Shader 22 bind to kernel 1 '_Z11srad_cuda_1PfS_S_S_S_S_iif'
GPGPU-Sim uArch: Shader 23 bind to kernel 1 '_Z11srad_cuda_1PfS_S_S_S_S_iif'
GPGPU-Sim uArch: Shader 24 bind to kernel 1 '_Z11srad_cuda_1PfS_S_S_S_S_iif'
GPGPU-Sim uArch: Shader 25 bind to kernel 1 '_Z11srad_cuda_1PfS_S_S_S_S_iif'
GPGPU-Sim uArch: Shader 26 bind to kernel 1 '_Z11srad_cuda_1PfS_S_S_S_S_iif'
GPGPU-Sim uArch: Shader 27 bind to kernel 1 '_Z11srad_cuda_1PfS_S_S_S_S_iif'
GPGPU-Sim uArch: Shader 28 bind to kernel 1 '_Z11srad_cuda_1PfS_S_S_S_S_iif'
GPGPU-Sim uArch: Shader 29 bind to kernel 1 '_Z11srad_cuda_1PfS_S_S_S_S_iif'
Simulation cycle for kernel 0 is = 10000
Simulation cycle for kernel 0 is = 15000
Simulation cycle for kernel 0 is = 20000
Simulation cycle for kernel 0 is = 25000
Simulation cycle for kernel 0 is = 30000
Simulation cycle for kernel 0 is = 35000
Simulation cycle for kernel 0 is = 40000
Simulation cycle for kernel 0 is = 45000
Simulation cycle for kernel 0 is = 50000
Simulation cycle for kernel 0 is = 55000
Simulation cycle for kernel 0 is = 60000
Simulation cycle for kernel 0 is = 65000
Simulation cycle for kernel 0 is = 70000
Simulation cycle for kernel 0 is = 75000
Simulation cycle for kernel 0 is = 80000
Simulation cycle for kernel 0 is = 85000
Simulation cycle for kernel 0 is = 90000
Simulation cycle for kernel 0 is = 95000
Simulation cycle for kernel 0 is = 100000
Simulation cycle for kernel 0 is = 105000
Simulation cycle for kernel 0 is = 110000
Simulation cycle for kernel 0 is = 115000
Simulation cycle for kernel 0 is = 120000
Simulation cycle for kernel 0 is = 125000
Simulation cycle for kernel 0 is = 130000
Simulation cycle for kernel 0 is = 135000
Simulation cycle for kernel 0 is = 140000
Simulation cycle for kernel 0 is = 145000
Simulation cycle for kernel 0 is = 150000
Simulation cycle for kernel 0 is = 155000
Simulation cycle for kernel 0 is = 160000
Simulation cycle for kernel 0 is = 165000
Simulation cycle for kernel 0 is = 170000
Simulation cycle for kernel 0 is = 175000
Simulation cycle for kernel 0 is = 180000
Simulation cycle for kernel 0 is = 185000
Simulation cycle for kernel 0 is = 190000
Simulation cycle for kernel 0 is = 195000
Simulation cycle for kernel 0 is = 200000
Simulation cycle for kernel 0 is = 205000
Simulation cycle for kernel 0 is = 210000
Simulation cycle for kernel 0 is = 215000
Simulation cycle for kernel 0 is = 220000
Simulation cycle for kernel 0 is = 225000
Simulation cycle for kernel 0 is = 230000
Simulation cycle for kernel 0 is = 235000
Simulation cycle for kernel 0 is = 240000
Simulation cycle for kernel 0 is = 245000
Simulation cycle for kernel 0 is = 250000
Simulation cycle for kernel 0 is = 255000
Simulation cycle for kernel 0 is = 260000
Simulation cycle for kernel 0 is = 265000
Simulation cycle for kernel 0 is = 270000
Simulation cycle for kernel 0 is = 275000
Simulation cycle for kernel 0 is = 280000
Simulation cycle for kernel 0 is = 285000
Simulation cycle for kernel 0 is = 290000
Simulation cycle for kernel 0 is = 295000
Simulation cycle for kernel 0 is = 300000
Simulation cycle for kernel 0 is = 305000
Simulation cycle for kernel 0 is = 310000
Simulation cycle for kernel 0 is = 315000
Simulation cycle for kernel 0 is = 320000
Simulation cycle for kernel 0 is = 325000
Simulation cycle for kernel 0 is = 330000
Simulation cycle for kernel 0 is = 335000
Simulation cycle for kernel 0 is = 340000
Simulation cycle for kernel 0 is = 345000
Simulation cycle for kernel 0 is = 350000
Simulation cycle for kernel 0 is = 355000
Simulation cycle for kernel 0 is = 360000
Simulation cycle for kernel 0 is = 365000
Simulation cycle for kernel 0 is = 370000
Simulation cycle for kernel 0 is = 375000
Simulation cycle for kernel 0 is = 380000
Simulation cycle for kernel 0 is = 385000
Simulation cycle for kernel 0 is = 390000
Simulation cycle for kernel 0 is = 395000
Simulation cycle for kernel 0 is = 400000
Simulation cycle for kernel 0 is = 405000
Simulation cycle for kernel 0 is = 410000
Simulation cycle for kernel 0 is = 415000
Simulation cycle for kernel 0 is = 420000
Simulation cycle for kernel 0 is = 425000
Simulation cycle for kernel 0 is = 430000
Simulation cycle for kernel 0 is = 435000
Simulation cycle for kernel 0 is = 440000
Simulation cycle for kernel 0 is = 445000
Simulation cycle for kernel 0 is = 450000
Simulation cycle for kernel 0 is = 455000
Simulation cycle for kernel 0 is = 460000
Simulation cycle for kernel 0 is = 465000
Simulation cycle for kernel 0 is = 470000
Simulation cycle for kernel 0 is = 475000
Simulation cycle for kernel 0 is = 480000
Simulation cycle for kernel 0 is = 485000
Simulation cycle for kernel 0 is = 490000
Simulation cycle for kernel 0 is = 495000
Simulation cycle for kernel 0 is = 500000
Simulation cycle for kernel 0 is = 505000
Simulation cycle for kernel 0 is = 510000
Simulation cycle for kernel 0 is = 515000
Simulation cycle for kernel 0 is = 520000
Simulation cycle for kernel 0 is = 525000
Simulation cycle for kernel 0 is = 530000
Simulation cycle for kernel 0 is = 535000
Simulation cycle for kernel 0 is = 540000
Simulation cycle for kernel 0 is = 545000
Simulation cycle for kernel 0 is = 550000
Simulation cycle for kernel 0 is = 555000
Simulation cycle for kernel 0 is = 560000
Simulation cycle for kernel 0 is = 565000
Simulation cycle for kernel 0 is = 570000
Simulation cycle for kernel 0 is = 575000
Simulation cycle for kernel 0 is = 580000
Simulation cycle for kernel 0 is = 585000
Simulation cycle for kernel 0 is = 590000
Simulation cycle for kernel 0 is = 595000
Simulation cycle for kernel 0 is = 600000
Simulation cycle for kernel 0 is = 605000
Simulation cycle for kernel 0 is = 610000
Simulation cycle for kernel 0 is = 615000
Simulation cycle for kernel 0 is = 620000
Simulation cycle for kernel 0 is = 625000
Simulation cycle for kernel 0 is = 630000
Simulation cycle for kernel 0 is = 635000
Simulation cycle for kernel 0 is = 640000
Simulation cycle for kernel 0 is = 645000
Simulation cycle for kernel 0 is = 650000
Simulation cycle for kernel 0 is = 655000
Simulation cycle for kernel 0 is = 660000
Simulation cycle for kernel 0 is = 665000
Simulation cycle for kernel 0 is = 670000
Simulation cycle for kernel 0 is = 675000
Simulation cycle for kernel 0 is = 680000
Simulation cycle for kernel 0 is = 685000
Simulation cycle for kernel 0 is = 690000
Simulation cycle for kernel 0 is = 695000
Simulation cycle for kernel 0 is = 700000
Simulation cycle for kernel 0 is = 705000
Simulation cycle for kernel 0 is = 710000
Simulation cycle for kernel 0 is = 715000
Simulation cycle for kernel 0 is = 720000
Simulation cycle for kernel 0 is = 725000
Simulation cycle for kernel 0 is = 730000
Simulation cycle for kernel 0 is = 735000
Simulation cycle for kernel 0 is = 740000
Destroy streams for kernel 1: size 0
kernel_name = _Z11srad_cuda_1PfS_S_S_S_S_iif 
kernel_launch_uid = 1 
gpu_sim_cycle = 742408
gpu_sim_insn = 650997050
gpu_ipc =     876.8724
gpu_tot_sim_cycle = 742408
gpu_tot_sim_insn = 650997050
gpu_tot_ipc =     876.8724
gpu_tot_issued_cta = 16384
gpu_occupancy = 99.4210% 
gpu_tot_occupancy = 99.4210% 
max_total_param_size = 0
gpu_stall_dramfull = 413286
gpu_stall_icnt2sh    = 0
partiton_level_parallism =       5.0062
partiton_level_parallism_total  =       5.0062
partiton_level_parallism_util =       5.3888
partiton_level_parallism_util_total  =       5.3888
L2_BW  =     218.6722 GB/Sec
L2_BW_total  =     218.6722 GB/Sec
gpu_total_sim_rate=67847

========= Core cache stats =========
L1I_cache:
	L1I_total_cache_accesses = 0
	L1I_total_cache_misses = 0
	L1I_total_cache_pending_hits = 0
	L1I_total_cache_reservation_fails = 0
L1D_cache:
	L1D_cache_core[0]: Access = 138528, Miss = 122312, Miss_rate = 0.883, Pending_hits = 14713, Reservation_fails = 50339
	L1D_cache_core[1]: Access = 140208, Miss = 124193, Miss_rate = 0.886, Pending_hits = 15051, Reservation_fails = 48572
	L1D_cache_core[2]: Access = 139824, Miss = 123631, Miss_rate = 0.884, Pending_hits = 14957, Reservation_fails = 48132
	L1D_cache_core[3]: Access = 139728, Miss = 123401, Miss_rate = 0.883, Pending_hits = 14932, Reservation_fails = 48152
	L1D_cache_core[4]: Access = 139584, Miss = 123630, Miss_rate = 0.886, Pending_hits = 14926, Reservation_fails = 49407
	L1D_cache_core[5]: Access = 140064, Miss = 124020, Miss_rate = 0.885, Pending_hits = 14961, Reservation_fails = 47529
	L1D_cache_core[6]: Access = 139008, Miss = 123072, Miss_rate = 0.885, Pending_hits = 15008, Reservation_fails = 46515
	L1D_cache_core[7]: Access = 140336, Miss = 124001, Miss_rate = 0.884, Pending_hits = 15052, Reservation_fails = 49557
	L1D_cache_core[8]: Access = 141024, Miss = 124647, Miss_rate = 0.884, Pending_hits = 15161, Reservation_fails = 46927
	L1D_cache_core[9]: Access = 140080, Miss = 123901, Miss_rate = 0.885, Pending_hits = 14894, Reservation_fails = 49139
	L1D_cache_core[10]: Access = 139008, Miss = 122835, Miss_rate = 0.884, Pending_hits = 14981, Reservation_fails = 47442
	L1D_cache_core[11]: Access = 140000, Miss = 123703, Miss_rate = 0.884, Pending_hits = 14985, Reservation_fails = 50846
	L1D_cache_core[12]: Access = 140064, Miss = 124056, Miss_rate = 0.886, Pending_hits = 14959, Reservation_fails = 49765
	L1D_cache_core[13]: Access = 140128, Miss = 123803, Miss_rate = 0.883, Pending_hits = 15027, Reservation_fails = 45746
	L1D_cache_core[14]: Access = 140208, Miss = 124139, Miss_rate = 0.885, Pending_hits = 14977, Reservation_fails = 52157
	L1D_cache_core[15]: Access = 141248, Miss = 125213, Miss_rate = 0.886, Pending_hits = 14975, Reservation_fails = 46139
	L1D_cache_core[16]: Access = 139568, Miss = 123243, Miss_rate = 0.883, Pending_hits = 15045, Reservation_fails = 48245
	L1D_cache_core[17]: Access = 141664, Miss = 125133, Miss_rate = 0.883, Pending_hits = 15047, Reservation_fails = 48096
	L1D_cache_core[18]: Access = 139744, Miss = 123577, Miss_rate = 0.884, Pending_hits = 14815, Reservation_fails = 50002
	L1D_cache_core[19]: Access = 139776, Miss = 123502, Miss_rate = 0.884, Pending_hits = 15073, Reservation_fails = 49887
	L1D_cache_core[20]: Access = 140560, Miss = 124431, Miss_rate = 0.885, Pending_hits = 15003, Reservation_fails = 48153
	L1D_cache_core[21]: Access = 139328, Miss = 123170, Miss_rate = 0.884, Pending_hits = 14870, Reservation_fails = 49599
	L1D_cache_core[22]: Access = 141904, Miss = 125662, Miss_rate = 0.886, Pending_hits = 15065, Reservation_fails = 46352
	L1D_cache_core[23]: Access = 140016, Miss = 123784, Miss_rate = 0.884, Pending_hits = 14924, Reservation_fails = 46131
	L1D_cache_core[24]: Access = 139264, Miss = 123328, Miss_rate = 0.886, Pending_hits = 15011, Reservation_fails = 47063
	L1D_cache_core[25]: Access = 139328, Miss = 123247, Miss_rate = 0.885, Pending_hits = 14943, Reservation_fails = 49744
	L1D_cache_core[26]: Access = 140256, Miss = 123654, Miss_rate = 0.882, Pending_hits = 14942, Reservation_fails = 48183
	L1D_cache_core[27]: Access = 142416, Miss = 126088, Miss_rate = 0.885, Pending_hits = 15132, Reservation_fails = 50161
	L1D_cache_core[28]: Access = 139232, Miss = 123202, Miss_rate = 0.885, Pending_hits = 14917, Reservation_fails = 46352
	L1D_cache_core[29]: Access = 140400, Miss = 124088, Miss_rate = 0.884, Pending_hits = 15053, Reservation_fails = 52210
	L1D_total_cache_accesses = 4202496
	L1D_total_cache_misses = 3716666
	L1D_total_cache_miss_rate = 0.8844
	L1D_total_cache_pending_hits = 449399
	L1D_total_cache_reservation_fails = 1456542
	L1D_cache_data_port_util = 0.002
	L1D_cache_fill_port_util = 0.050
L1C_cache:
	L1C_total_cache_accesses = 0
	L1C_total_cache_misses = 0
	L1C_total_cache_pending_hits = 0
	L1C_total_cache_reservation_fails = 0
L1T_cache:
	L1T_total_cache_accesses = 0
	L1T_total_cache_misses = 0
	L1T_total_cache_pending_hits = 0
	L1T_total_cache_reservation_fails = 0

Total_core_cache_stats:
	Total_core_cache_stats_breakdown[GLOBAL_ACC_R][HIT] = 36431
	Total_core_cache_stats_breakdown[GLOBAL_ACC_R][HIT_RESERVED] = 449399
	Total_core_cache_stats_breakdown[GLOBAL_ACC_R][MISS] = 531798
	Total_core_cache_stats_breakdown[GLOBAL_ACC_R][RESERVATION_FAIL] = 319816
	Total_core_cache_stats_breakdown[GLOBAL_ACC_R][SECTOR_MISS] = 563428
	Total_core_cache_stats_breakdown[GLOBAL_ACC_R][MSHR_HIT] = 449399
	Total_core_cache_stats_breakdown[LOCAL_ACC_R][HIT] = 0
	Total_core_cache_stats_breakdown[LOCAL_ACC_R][HIT_RESERVED] = 0
	Total_core_cache_stats_breakdown[LOCAL_ACC_R][MISS] = 0
	Total_core_cache_stats_breakdown[LOCAL_ACC_R][RESERVATION_FAIL] = 0
	Total_core_cache_stats_breakdown[LOCAL_ACC_R][SECTOR_MISS] = 0
	Total_core_cache_stats_breakdown[LOCAL_ACC_R][MSHR_HIT] = 0
	Total_core_cache_stats_breakdown[CONST_ACC_R][HIT] = 0
	Total_core_cache_stats_breakdown[CONST_ACC_R][HIT_RESERVED] = 0
	Total_core_cache_stats_breakdown[CONST_ACC_R][MISS] = 0
	Total_core_cache_stats_breakdown[CONST_ACC_R][RESERVATION_FAIL] = 0
	Total_core_cache_stats_breakdown[CONST_ACC_R][SECTOR_MISS] = 0
	Total_core_cache_stats_breakdown[CONST_ACC_R][MSHR_HIT] = 0
	Total_core_cache_stats_breakdown[TEXTURE_ACC_R][HIT] = 0
	Total_core_cache_stats_breakdown[TEXTURE_ACC_R][HIT_RESERVED] = 0
	Total_core_cache_stats_breakdown[TEXTURE_ACC_R][MISS] = 0
	Total_core_cache_stats_breakdown[TEXTURE_ACC_R][RESERVATION_FAIL] = 0
	Total_core_cache_stats_breakdown[TEXTURE_ACC_R][SECTOR_MISS] = 0
	Total_core_cache_stats_breakdown[TEXTURE_ACC_R][MSHR_HIT] = 0
	Total_core_cache_stats_breakdown[GLOBAL_ACC_W][HIT] = 0
	Total_core_cache_stats_breakdown[GLOBAL_ACC_W][HIT_RESERVED] = 0
	Total_core_cache_stats_breakdown[GLOBAL_ACC_W][MISS] = 1289503
	Total_core_cache_stats_breakdown[GLOBAL_ACC_W][RESERVATION_FAIL] = 1136726
	Total_core_cache_stats_breakdown[GLOBAL_ACC_W][SECTOR_MISS] = 1331937
	Total_core_cache_stats_breakdown[GLOBAL_ACC_W][MSHR_HIT] = 0
	Total_core_cache_stats_breakdown[LOCAL_ACC_W][HIT] = 0
	Total_core_cache_stats_breakdown[LOCAL_ACC_W][HIT_RESERVED] = 0
	Total_core_cache_stats_breakdown[LOCAL_ACC_W][MISS] = 0
	Total_core_cache_stats_breakdown[LOCAL_ACC_W][RESERVATION_FAIL] = 0
	Total_core_cache_stats_breakdown[LOCAL_ACC_W][SECTOR_MISS] = 0
	Total_core_cache_stats_breakdown[LOCAL_ACC_W][MSHR_HIT] = 0
	Total_core_cache_stats_breakdown[L1_WRBK_ACC][HIT] = 0
	Total_core_cache_stats_breakdown[L1_WRBK_ACC][HIT_RESERVED] = 0
	Total_core_cache_stats_breakdown[L1_WRBK_ACC][MISS] = 0
	Total_core_cache_stats_breakdown[L1_WRBK_ACC][RESERVATION_FAIL] = 0
	Total_core_cache_stats_breakdown[L1_WRBK_ACC][SECTOR_MISS] = 0
	Total_core_cache_stats_breakdown[L1_WRBK_ACC][MSHR_HIT] = 0
	Total_core_cache_stats_breakdown[L2_WRBK_ACC][HIT] = 0
	Total_core_cache_stats_breakdown[L2_WRBK_ACC][HIT_RESERVED] = 0
	Total_core_cache_stats_breakdown[L2_WRBK_ACC][MISS] = 0
	Total_core_cache_stats_breakdown[L2_WRBK_ACC][RESERVATION_FAIL] = 0
	Total_core_cache_stats_breakdown[L2_WRBK_ACC][SECTOR_MISS] = 0
	Total_core_cache_stats_breakdown[L2_WRBK_ACC][MSHR_HIT] = 0
	Total_core_cache_stats_breakdown[INST_ACC_R][HIT] = 0
	Total_core_cache_stats_breakdown[INST_ACC_R][HIT_RESERVED] = 0
	Total_core_cache_stats_breakdown[INST_ACC_R][MISS] = 0
	Total_core_cache_stats_breakdown[INST_ACC_R][RESERVATION_FAIL] = 0
	Total_core_cache_stats_breakdown[INST_ACC_R][SECTOR_MISS] = 0
	Total_core_cache_stats_breakdown[INST_ACC_R][MSHR_HIT] = 0
	Total_core_cache_stats_breakdown[L1_WR_ALLOC_R][HIT] = 0
	Total_core_cache_stats_breakdown[L1_WR_ALLOC_R][HIT_RESERVED] = 0
	Total_core_cache_stats_breakdown[L1_WR_ALLOC_R][MISS] = 0
	Total_core_cache_stats_breakdown[L1_WR_ALLOC_R][RESERVATION_FAIL] = 0
	Total_core_cache_stats_breakdown[L1_WR_ALLOC_R][SECTOR_MISS] = 0
	Total_core_cache_stats_breakdown[L1_WR_ALLOC_R][MSHR_HIT] = 0
	Total_core_cache_stats_breakdown[L2_WR_ALLOC_R][HIT] = 0
	Total_core_cache_stats_breakdown[L2_WR_ALLOC_R][HIT_RESERVED] = 0
	Total_core_cache_stats_breakdown[L2_WR_ALLOC_R][MISS] = 0
	Total_core_cache_stats_breakdown[L2_WR_ALLOC_R][RESERVATION_FAIL] = 0
	Total_core_cache_stats_breakdown[L2_WR_ALLOC_R][SECTOR_MISS] = 0
	Total_core_cache_stats_breakdown[L2_WR_ALLOC_R][MSHR_HIT] = 0
	Total_core_cache_stats_breakdown[GLOBAL_ACC_R][TOTAL_ACCESS] = 1581056
	Total_core_cache_stats_breakdown[GLOBAL_ACC_W][TOTAL_ACCESS] = 2621440

Total_core_cache_fail_stats:
	Total_core_cache_fail_stats_breakdown[GLOBAL_ACC_R][MISS_QUEUE_FULL] = 319816
	Total_core_cache_fail_stats_breakdown[GLOBAL_ACC_W][MISS_QUEUE_FULL] = 1136726
ctas_completed 16384, Shader 0 warp_id issue ditsribution:
warp_id:
0, 1, 2, 3, 4, 5, 6, 7, 8, 9, 10, 11, 12, 13, 14, 15, 16, 17, 18, 19, 20, 21, 22, 23, 24, 25, 26, 27, 28, 29, 30, 31, 
distro:
27010, 24043, 24052, 24043, 24043, 24052, 24046, 27007, 27008, 24035, 24035, 24029, 24026, 24038, 24041, 27008, 26989, 24025, 24034, 24025, 24037, 24037, 24028, 26992, 27020, 24053, 24056, 24056, 24041, 24047, 24050, 27017, 
gpgpu_n_tot_thrd_icount = 769811232
gpgpu_n_tot_w_icount = 24056601
gpgpu_n_stall_shd_mem = 1957425
gpgpu_n_mem_read_local = 0
gpgpu_n_mem_write_local = 0
gpgpu_n_mem_read_global = 1095226
gpgpu_n_mem_write_global = 2621440
gpgpu_n_mem_texture = 0
gpgpu_n_mem_const = 0
gpgpu_n_load_insn  = 21102592
gpgpu_n_store_insn = 20971520
gpgpu_n_shmem_insn = 50462720
gpgpu_n_sstarr_insn = 0
gpgpu_n_tex_insn = 0
gpgpu_n_const_mem_insn = 0
gpgpu_n_param_mem_insn = 33554432
gpgpu_n_shmem_bkconflict = 0
gpgpu_n_cache_bkconflict = 0
gpgpu_n_intrawarp_mshr_merge = 0
gpgpu_n_cmem_portconflict = 0
gpgpu_stall_shd_mem[c_mem][resource_stall] = 0
gpgpu_stall_shd_mem[s_mem][bk_conf] = 262144
gpgpu_stall_shd_mem[gl_mem][resource_stall] = 1695281
gpgpu_stall_shd_mem[gl_mem][coal_stall] = 0
gpgpu_stall_shd_mem[gl_mem][data_port_stall] = 0
gpu_reg_bank_conflict_stalls = 0
Warp Occupancy Distribution:
Stall:21827836	W0_Idle:531134	W0_Scoreboard:41677381	W1:758360	W2:847713	W3:71220	W4:66576	W5:52782	W6:37386	W7:24096	W8:14307	W9:7842	W10:4110	W11:2061	W12:924	W13:404	W14:360593	W15:229433	W16:16439	W17:48	W18:100	W19:271	W20:616	W21:1374	W22:2740	W23:5228	W24:9538	W25:16064	W26:24924	W27:35188	W28:339296	W29:80248	W30:1073046	W31:156048	W32:19817626
single_issue_nums: WS0:6194387	WS1:5833861	WS2:5834029	WS3:6194324	
dual_issue_nums: WS0:0	WS1:0	WS2:0	WS3:0	
traffic_breakdown_coretomem[GLOBAL_ACC_R] = 8761808 {8:1095226,}
traffic_breakdown_coretomem[GLOBAL_ACC_W] = 104857600 {40:2621440,}
traffic_breakdown_memtocore[GLOBAL_ACC_R] = 43809040 {40:1095226,}
traffic_breakdown_memtocore[GLOBAL_ACC_W] = 20971520 {8:2621440,}
maxmflatency = 2395 
max_icnt2mem_latency = 1064 
maxmrqlatency = 2003 
max_icnt2sh_latency = 774 
averagemflatency = 358 
avg_icnt2mem_latency = 81 
avg_mrq_latency = 99 
avg_icnt2sh_latency = 32 
mrq_lat_table:474555 	13727 	23962 	46455 	85296 	119144 	143459 	116281 	80982 	46687 	8910 	0 	0 	0 	0 	0 	0 	0 	0 	0 	0 	0 	0 	0 	0 	0 	0 	0 	0 	0 	0 	0 	
dq_lat_table:0 	0 	0 	0 	0 	0 	0 	0 	0 	0 	0 	0 	0 	0 	0 	0 	0 	0 	0 	0 	0 	0 	0 	0 	0 	0 	0 	0 	0 	0 	0 	0 	
mf_lat_table:0 	0 	0 	0 	0 	0 	0 	873062 	2428596 	400011 	14870 	127 	0 	0 	0 	0 	0 	0 	0 	0 	0 	0 	0 	0 	0 	0 	0 	0 	0 	0 	0 	0 	
icnt2mem_lat_table:0 	0 	0 	0 	0 	2206279 	1068046 	279128 	141479 	21721 	13 	0 	0 	0 	0 	0 	0 	0 	0 	0 	0 	0 	0 	0 	
icnt2sh_lat_table:0 	1608440 	500336 	371018 	320186 	322635 	319708 	205817 	65210 	3316 	0 	0 	0 	0 	0 	0 	0 	0 	0 	0 	0 	0 	0 	0 	
mf_lat_pw_table:0 	0 	0 	0 	0 	0 	0 	7 	694 	35 	0 	0 	0 	0 	0 	0 	0 	0 	0 	0 	0 	0 	0 	0 	0 	0 	0 	0 	0 	0 	0 	0 	
maximum concurrent accesses to same row:
dram[0]:        64        64        64        64        64        64        64        64        64        64        64        64        64        64        64        64 
dram[1]:        64        64        64        64        64        64        64        64        64        64        64        64        64        64        64        64 
dram[2]:        64        64        64        64        64        64        64        64        64        64        64        64        64        64        64        64 
dram[3]:        64        64        64        64        64        64        64        64        64        64        64        64        64        64        64        64 
dram[4]:        64        64        64        64        64        64        64        64        64        64        64        64        64        64        64        64 
dram[5]:        64        64        64        64        64        64        64        64        64        64        64        64        64        64        64        64 
dram[6]:        64        64        64        64        64        64        64        64        64        64        64        64        64        64        64        64 
dram[7]:        64        64        64        64        64        64        64        64        64        64        64        64        64        64        64        64 
dram[8]:        64        64        64        64        64        64        64        64        64        64        64        64        64        64        64        64 
dram[9]:        64        64        64        64        64        64        64        64        64        64        64        64        64        64        64        64 
dram[10]:        64        64        64        64        64        64        64        64        64        64        64        64        64        64        64        64 
dram[11]:        64        64        64        64        64        64        64        64        64        64        64        64        64        64        64        64 
maximum service time to same row:
dram[0]:     16991     17124     22269     22141     21954     21939     26270     26773     26743     26778     26746     26777     27059     26528     11715     11563 
dram[1]:     16896     17131     22122     22412     21999     22051     26599     26969     26979     26961     26991     26972     26980     26962     11702     11931 
dram[2]:     17215     17079     22269     22491     22212     22188     26745     26537     27137     27085     27140     27094     26857     27097     11848     11806 
dram[3]:     17112     17197     22439     22356     22086     22130     26499     26745     27106     26744     27125     27150     26974     27151     11795     11836 
dram[4]:     17112     17173     22262     22141     22278     22149     26737     26767     26738     26768     26293     26314     27050     26792     11739     11586 
dram[5]:     17158     17295     22125     22414     22132     22322     26971     26964     26980     26962     26469     26530     27537     26927     11721     11958 
dram[6]:     17328     17471     22271     22505     22281     22348     27132     27083     27138     27090     26485     26625     26282     26124     11876     11834 
dram[7]:     17266     17272     22432     22357     22349     22352     27110     26739     27109     26754     26650     26668     26353     27019     11822     11862 
dram[8]:     17409     17291     22263     22145     21789     21677     26735     26768     26747     26779     26745     26776     28962     26812     11736     11588 
dram[9]:     17386     17331     22121     22411     21685     21763     26972     26964     26982     26975     26804     26970     27952     26927     11722     11952 
dram[10]:     17353     17457     22268     22490     21808     21948     27133     27086     27136     27084     26885     26972     27141     27096     11869     11830 
dram[11]:     17420     17491     22433     22353     21984     22016     27113     26747     27116     26743     26897     26897     27126     27148     11819     11838 
average row accesses per activate:
dram[0]:  2.977385  2.984721  3.225892  3.204870  2.611135  2.546947  3.626794  3.558686  3.011940  2.986686  2.485573  2.449594  2.870752  2.875779  2.976698  2.905177 
dram[1]:  2.951267  3.046278  3.158059  3.154768  2.509332  2.596740  3.571260  3.581807  3.029500  3.107290  2.455990  2.492970  2.859733  2.876259  2.936399  2.975707 
dram[2]:  3.020449  3.063227  3.236237  3.271745  2.615917  2.705724  3.607377  3.615981  3.077197  3.104049  2.525346  2.503531  2.952733  2.979136  2.961007  3.035913 
dram[3]:  2.992095  2.964268  3.116315  3.185166  2.582408  2.599484  3.577581  3.507230  2.963796  2.946498  2.477600  2.457994  2.924915  2.797947  2.922065  2.795529 
dram[4]:  3.081934  3.088220  3.175668  3.185166  2.587254  2.588361  3.650813  3.598813  3.066869  3.056004  2.658580  2.645897  2.998001  2.907372  3.093155  3.066905 
dram[5]:  2.998514  3.059626  3.178478  3.207627  2.570761  2.621587  3.503177  3.600950  3.017439  3.140487  2.601900  2.686135  2.938756  2.956608  3.041519  3.103306 
dram[6]:  3.079309  3.136199  3.262392  3.207098  2.665932  2.623157  3.720245  3.637672  3.139969  3.188520  2.665340  2.749544  2.975199  2.972745  3.085303  3.015562 
dram[7]:  3.012935  3.058586  3.142190  3.163532  2.606204  2.564222  3.609524  3.552431  3.074619  3.011437  2.655066  2.659753  2.983093  2.808053  3.092688  2.995015 
dram[8]:  3.025987  2.990124  3.109913  3.204870  2.402861  2.434608  3.635492  3.590290  3.012929  2.973000  2.531709  2.493797  2.941148  2.955150  2.957185  2.962525 
dram[9]:  3.033567  2.996042  3.196410  3.206568  2.417898  2.484189  3.485057  3.581807  3.021945  3.130233  2.538526  2.574296  2.928641  2.891462  2.992032  3.040465 
dram[10]:  3.080366  3.106721  3.274743  3.180672  2.501034  2.582160  3.548274  3.603090  3.078212  3.128616  2.584477  2.576496  2.918656  2.941119  2.933105  2.919339 
dram[11]:  3.027500  3.075165  3.106721  3.109913  2.521884  2.451378  3.544126  3.562867  3.019442  3.006452  2.549915  2.456619  2.951724  2.822034  2.981647  2.860476 
average row locality = 1159458/392722 = 2.952363
number of total memory accesses made:
dram[0]:         0         0         0         0         0         0         0         0         0         0         0         0         0         0         0         0 
dram[1]:         0         0         0         0         0         0         0         0         0         0         0         0         0         0         0         0 
dram[2]:         0         0         0         0         0         0         0         0         0         0         0         0         0         0         0         0 
dram[3]:         0         0         0         0         0         0         0         0         0         0         0         0         0         0         0         0 
dram[4]:         0         0         0         0         0         0         0         0         0         0         0         0         0         0         0         0 
dram[5]:         0         0         0         0         0         0         0         0         0         0         0         0         0         0         0         0 
dram[6]:         0         0         0         0         0         0         0         0         0         0         0         0         0         0         0         0 
dram[7]:         0         0         0         0         0         0         0         0         0         0         0         0         0         0         0         0 
dram[8]:         0         0         0         0         0         0         0         0         0         0         0         0         0         0         0         0 
dram[9]:         0         0         0         0         0         0         0         0         0         0         0         0         0         0         0         0 
dram[10]:         0         0         0         0         0         0         0         0         0         0         0         0         0         0         0         0 
dram[11]:         0         0         0         0         0         0         0         0         0         0         0         0         0         0         0         0 
total accesses: 0
min_bank_accesses = 0!
min_chip_accesses = 0!
number of total read accesses:
dram[0]:      2752      2752      2752      2752      2752      2752      2752      2752      2752      2752      2720      2720      2688      2688      2696      2696 
dram[1]:      2752      2752      2752      2752      2752      2752      2752      2752      2752      2752      2720      2720      2688      2688      2696      2696 
dram[2]:      2752      2752      2752      2752      2752      2752      2752      2752      2752      2752      2720      2720      2688      2688      2696      2696 
dram[3]:      2752      2752      2752      2752      2752      2752      2752      2752      2752      2752      2720      2720      2688      2688      2696      2696 
dram[4]:      2752      2752      2752      2752      2752      2752      2752      2752      2752      2752      2720      2720      2688      2688      2700      2700 
dram[5]:      2752      2752      2752      2752      2752      2752      2752      2752      2752      2752      2720      2720      2688      2688      2700      2700 
dram[6]:      2752      2752      2752      2752      2752      2752      2752      2752      2752      2752      2720      2720      2688      2688      2700      2700 
dram[7]:      2752      2752      2752      2752      2752      2752      2752      2752      2752      2752      2720      2720      2688      2688      2700      2700 
dram[8]:      2752      2752      2752      2752      2752      2752      2752      2752      2752      2752      2720      2720      2688      2688      2700      2700 
dram[9]:      2752      2752      2752      2752      2752      2752      2752      2752      2752      2752      2720      2720      2688      2688      2700      2700 
dram[10]:      2752      2752      2752      2752      2752      2752      2752      2752      2752      2752      2720      2720      2688      2688      2700      2700 
dram[11]:      2752      2752      2752      2752      2752      2752      2752      2752      2752      2752      2720      2720      2688      2688      2700      2700 
total dram reads = 524800
bank skew: 2752/2688 = 1.02
chip skew: 43736/43728 = 1.00
number of total write accesses:
dram[0]:     13216     13216     13212     13208     13192     13188     13248     13248     13208     13220     13240     13224     13236     13232     13232     13236 
dram[1]:     13216     13216     13208     13208     13192     13204     13248     13248     13228     13204     13228     13232     13224     13236     13224     13224 
dram[2]:     13216     13216     13212     13216     13184     13192     13248     13248     13228     13216     13232     13224     13236     13236     13212     13224 
dram[3]:     13216     13216     13212     13212     13184     13188     13248     13248     13224     13224     13232     13228     13244     13232     13212     13224 
dram[4]:     13216     13216     13216     13212     13188     13188     13248     13248     13208     13220     13228     13240     13244     13228     13240     13220 
dram[5]:     13208     13212     13212     13216     13188     13184     13248     13248     13216     13224     13224     13220     13240     13232     13228     13232 
dram[6]:     13220     13216     13212     13212     13188     13188     13248     13248     13220     13212     13236     13228     13240     13244     13216     13228 
dram[7]:     13216     13216     13212     13212     13188     13188     13248     13248     13220     13216     13228     13228     13244     13240     13224     13232 
dram[8]:     13212     13212     13212     13208     13184     13192     13248     13248     13228     13216     13232     13240     13236     13232     13236     13232 
dram[9]:     13212     13212     13208     13208     13200     13188     13248     13248     13228     13220     13236     13236     13216     13224     13232     13244 
dram[10]:     13216     13212     13212     13216     13192     13192     13248     13248     13236     13220     13228     13236     13216     13224     13228     13232 
dram[11]:     13212     13212     13212     13212     13192     13192     13248     13248     13220     13224     13232     13244     13216     13224     13244     13228 
total dram writes = 2538632
bank skew: 13248/13184 = 1.00
chip skew: 211568/211532 = 1.00
average mf latency per bank:
dram[0]:        432       433       424       426       448       452       416       420       423       428       438       443       419       425       429       436
dram[1]:        433       443       425       434       451       460       420       427       428       435       444       452       425       432       436       445
dram[2]:        440       448       432       436       459       463       424       431       432       439       449       455       429       434       441       447
dram[3]:        436       429       426       418       453       446       420       417       426       423       443       438       423       419       437       431
dram[4]:        430       434       422       425       441       446       414       420       420       427       438       445       416       424       430       439
dram[5]:        436       445       425       436       448       457       420       429       428       437       444       454       424       434       438       449
dram[6]:        439       444       432       435       453       459       424       431       432       439       448       454       428       433       444       450
dram[7]:        435       430       427       420       448       443       421       419       428       426       444       440       424       419       440       434
dram[8]:        427       430       423       425       444       448       414       419       421       426       440       445       417       424       431       439
dram[9]:        430       439       424       435       448       458       421       428       427       435       448       457       424       433       439       448
dram[10]:        434       436       430       431       452       454       422       428       430       436       451       456       428       431       442       446
dram[11]:        429       423       425       419       449       443       419       417       426       424       447       443       422       419       437       434
maximum mf latency per bank:
dram[0]:       2036      2167      1858      1943      1859      1881      1741      2079      1750      2065      1804      2063      1808      1669      1793      1577
dram[1]:       2019      2101      1745      1745      1887      1762      2072      2063      2082      2040      2095      2066      1935      1706      1938      1729
dram[2]:       1865      2171      1876      1667      1878      2308      2024      1691      2016      1698      2021      1956      1856      1954      1843      1942
dram[3]:       1939      2214      1685      2010      1895      2057      1916      2156      1912      2156      2281      2125      1948      2120      1941      2110
dram[4]:       2029      1985      1944      1691      1947      2109      1737      2129      1742      2094      1930      2093      1813      1535      1809      1519
dram[5]:       2177      2395      1666      1703      1975      1789      1712      1977      1710      1993      2155      2106      2129      2107      1888      2116
dram[6]:       2004      1876      1788      1675      1797      1913      1730      1621      1776      1602      2063      1906      1825      1897      1793      1902
dram[7]:       1832      1858      1716      1896      1732      2041      1740      2044      1738      2048      2286      2017      1855      1970      1843      2055
dram[8]:       1699      1879      1705      1627      1860      2101      1395      2086      1406      2067      1977      1933      1562      2003      1535      2033
dram[9]:       1747      1709      1722      1712      1910      2038      2070      2062      1740      2052      2096      1910      1737      1627      1764      1624
dram[10]:       2028      2012      1864      1970      2026      1858      1739      1657      1712      1636      2191      2019      1920      1890      1924      1890
dram[11]:       1941      1946      1937      1952      2095      2102      1953      1962      1946      1959      2100      2209      2012      2211      2008      2226

Number of Memory Banks Accessed per Memory Operation per Warp (from 0):
0	0	0	0	0	0	0	0	0	0	0	0	0	0	0	0	0	0	0	0	0	0	0	0	0	0	0	0	0	0	0	0	0	0	0	0	0	0	0	0	0	0	0	0	0	0	0	0	0	0	0	0	0	0	0	0	0	0	0	0	0	0	0	0	0	0	0	0	0	0	0	0	0	0	0	0	0	0	0	0	0	0	0	0	0	0	0	0	0	0	0	0	0	0	0	0	0	0	0	0	0	0	0	0	0	0	0	0	0	0	0	0	0	0	0	0	0	0	0	0	0	0	0	0	0	0	0	0	0	0	0	0	0	0	0	0	0	0	0	0	0	0	0	0	0	0	0	0	0	0	0	0	0	0	0	0	0	0	0	0	0	0	0	0	0	0	0	0	0	0	0	0	0	0	0	0	0	0	0	0	0	0	0	0	0	0	0	0	0	0	0	0	
Average # of Memory Banks Accessed per Memory Operation per Warp=-nan

position of mrq chosen
0	0	0	0	0	0	0	0	0	0	0	0	0	0	0	0	0	0	0	0	0	0	0	0	0	0	0	0	0	0	0	0	0	0	0	0	0	0	0	0	0	0	0	0	0	0	0	0	0	0	0	0	0	0	0	0	0	0	0	0	0	0	0	0	

average position of mrq chosen = -nan
Memory Partition 0: 
Cache L2_bank_000:
MSHR contents

Cache L2_bank_001:
MSHR contents

In Dram Latency Queue (total = 0): 
DRAM[0]: 16 bks, busW=2 BL=16 CL=24, tRRD=12 tCCD=4, tRCD=24 tRAS=55 tRP=24 tRC=78
n_cmd=1903880 n_nop=1589251 n_act=33093 n_pre=33077 n_ref_event=4572360550251980812 n_req=96617 n_rd=43728 n_rd_L2_A=0 n_write=0 n_wr_bk=211556 bw_util=0.5363
n_activity=1352818 dram_eff=0.7548
[...]

------------------------------------------------------------------------

Row_Buffer_Locality = 0.752975
Row_Buffer_Locality_read = 0.815236
Row_Buffer_Locality_write = 0.460819
Bank_Level_Parallism = 7.061332
Bank_Level_Parallism_Col = 5.951998
Bank_Level_Parallism_Ready = 3.230111
write_to_read_ratio_blp_rw_average = 0.483511
GrpLevelPara = 3.014616 

BW Util details:
bwutil = 0.635959 
total_CMD = 7127600 
util_bw = 4532864 
Wasted_Col = 935229 
Wasted_Row = 174866 
Idle = 1484641 

BW Util Bottlenecks: 
RCDc_limit = 569365 
RCDWRc_limit = 185329 
WTRc_limit = 893998 
RTWc_limit = 957574 
CCDLc_limit = 577298 
rwq = 0 
CCDLc_limit_alone = 430641 
WTRc_limit_alone = 825814 
RTWc_limit_alone = 879101 

Commands details: 
total_CMD = 7127600 
n_nop = 5662411 
Read = 611744 
Write = 0 
L2_Alloc = 0 
L2_WB = 521472 
n_act = 183334 
n_pre = 183318 
n_ref = 0 
n_req = 742112 
total_req = 1133216 

Dual Bus Interface Util: 
issued_total_row = 366652 
issued_total_col = 1133216 
Row_Bus_Util =  0.051441 
CoL_Bus_Util = 0.158990 
Either_Row_CoL_Bus_Util = 0.205566 
Issued_on_Two_Bus_Simul_Util = 0.004865 
issued_two_Eff = 0.023669 
queue_avg = 16.732450 


dram_util_bins: 0 0 0 0 0 0 0 0 0 0
dram_eff_bins: 0 0 0 0 0 0 0 0 0 0
mrqq: max=64 avg=16.7325
Memory Partition 7: 
Cache L2_bank_014:
MSHR contents

Cache L2_bank_015:
MSHR contents

In Dram Latency Queue (total = 0): 
DRAM[7]: 16 bks, busW=2 BL=16 CL=24, tRRD=12 tCCD=4, tRCD=24 tRAS=55 tRP=24 tRC=78
n_cmd=7127600 n_nop=5661429 n_act=183934 n_pre=183918 n_ref_event=0 n_req=742108 n_rd=611744 n_rd_L2_A=0 n_write=0 n_wr_bk=521456 bw_util=0.636
n_activity=5874668 dram_eff=0.7716
bk0: 38272a 4718991i bk1: 38272a 4723713i bk2: 38272a 4818230i bk3: 38272a 4794239i bk4: 38288a 4402126i bk5: 38288a 4351225i bk6: 38272a 4894731i bk7: 38272a 4909794i bk8: 38272a 4869140i bk9: 38272a 4816428i bk10: 38184a 4334073i bk11: 38184a 4303408i bk12: 38144a 4812736i bk13: 38144a 4793783i bk14: 38168a 4787596i bk15: 38168a 4760723i 

------------------------------------------------------------------------

Row_Buffer_Locality = 0.752165
Row_Buffer_Locality_read = 0.812920
Row_Buffer_Locality_write = 0.467069
Bank_Level_Parallism = 7.111660
Bank_Level_Parallism_Col = 5.988680
Bank_Level_Parallism_Ready = 3.244309
write_to_read_ratio_blp_rw_average = 0.482487
GrpLevelPara = 3.022000 

BW Util details:
bwutil = 0.635950 
total_CMD = 7127600 
util_bw = 4532800 
Wasted_Col = 933084 
Wasted_Row = 169044 
Idle = 1492672 

BW Util Bottlenecks: 
RCDc_limit = 577720 
RCDWRc_limit = 178835 
WTRc_limit = 910966 
RTWc_limit = 962190 
CCDLc_limit = 581028 
rwq = 0 
CCDLc_limit_alone = 432313 
WTRc_limit_alone = 840536 
RTWc_limit_alone = 883905 

Commands details: 
total_CMD = 7127600 
n_nop = 5661429 
Read = 611744 
Write = 0 
L2_Alloc = 0 
L2_WB = 521456 
n_act = 183934 
n_pre = 183918 
n_ref = 0 
n_req = 742108 
total_req = 1133200 

Dual Bus Interface Util: 
issued_total_row = 367852 
issued_total_col = 1133200 
Row_Bus_Util =  0.051610 
CoL_Bus_Util = 0.158988 
Either_Row_CoL_Bus_Util = 0.205703 
Issued_on_Two_Bus_Simul_Util = 0.004894 
issued_two_Eff = 0.023791 
queue_avg = 17.075838 


dram_util_bins: 0 0 0 0 0 0 0 0 0 0
dram_eff_bins: 0 0 0 0 0 0 0 0 0 0
mrqq: max=64 avg=17.0758
Memory Partition 8: 
Cache L2_bank_016:
MSHR contents

Cache L2_bank_017:
MSHR contents

In Dram Latency Queue (total = 0): 
DRAM[8]: 16 bks, busW=2 BL=16 CL=24, tRRD=12 tCCD=4, tRCD=24 tRAS=55 tRP=24 tRC=78
n_cmd=7127600 n_nop=5658321 n_act=186099 n_pre=186083 n_ref_event=0 n_req=742122 n_rd=611760 n_rd_L2_A=0 n_write=0 n_wr_bk=521448 bw_util=0.636
n_activity=5869330 dram_eff=0.7723
bk0: 38272a 4758718i bk1: 38272a 4740480i bk2: 38272a 4801241i bk3: 38272a 4761731i bk4: 38296a 4267967i bk5: 38296a 4231125i bk6: 38272a 4917986i bk7: 38272a 4889702i bk8: 38272a 4841608i bk9: 38272a 4813823i bk10: 38184a 4280858i bk11: 38184a 4269426i bk12: 38144a 4815832i bk13: 38144a 4778425i bk14: 38168a 4768446i bk15: 38168a 4748240i 

------------------------------------------------------------------------

Row_Buffer_Locality = 0.749253
Row_Buffer_Locality_read = 0.811120
Row_Buffer_Locality_write = 0.458922
Bank_Level_Parallism = 7.194945
Bank_Level_Parallism_Col = 6.037878
Bank_Level_Parallism_Ready = 3.275432
write_to_read_ratio_blp_rw_average = 0.480838
GrpLevelPara = 3.036294 

BW Util details:
bwutil = 0.635955 
total_CMD = 7127600 
util_bw = 4532832 
Wasted_Col = 927620 
Wasted_Row = 166918 
Idle = 1500230 

BW Util Bottlenecks: 
RCDc_limit = 581489 
RCDWRc_limit = 177933 
WTRc_limit = 905851 
RTWc_limit = 961947 
CCDLc_limit = 569734 
rwq = 0 
CCDLc_limit_alone = 422583 
WTRc_limit_alone = 837312 
RTWc_limit_alone = 883335 

Commands details: 
total_CMD = 7127600 
n_nop = 5658321 
Read = 611760 
Write = 0 
L2_Alloc = 0 
L2_WB = 521448 
n_act = 186099 
n_pre = 186083 
n_ref = 0 
n_req = 742122 
total_req = 1133208 

Dual Bus Interface Util: 
issued_total_row = 372182 
issued_total_col = 1133208 
Row_Bus_Util =  0.052217 
CoL_Bus_Util = 0.158989 
Either_Row_CoL_Bus_Util = 0.206139 
Issued_on_Two_Bus_Simul_Util = 0.005066 
issued_two_Eff = 0.024577 
queue_avg = 17.194780 


dram_util_bins: 0 0 0 0 0 0 0 0 0 0
dram_eff_bins: 0 0 0 0 0 0 0 0 0 0
mrqq: max=64 avg=17.1948
Memory Partition 9: 
Cache L2_bank_018:
MSHR contents

Cache L2_bank_019:
MSHR contents

In Dram Latency Queue (total = 0): 
DRAM[9]: 16 bks, busW=2 BL=16 CL=24, tRRD=12 tCCD=4, tRCD=24 tRAS=55 tRP=24 tRC=78
n_cmd=7127600 n_nop=5652637 n_act=188734 n_pre=188718 n_ref_event=0 n_req=742124 n_rd=611760 n_rd_L2_A=0 n_write=0 n_wr_bk=521456 bw_util=0.636
n_activity=5910158 dram_eff=0.767
bk0: 38272a 4813619i bk1: 38272a 4790910i bk2: 38272a 4867877i bk3: 38272a 4834104i bk4: 38296a 4322455i bk5: 38296a 4311683i bk6: 38272a 4922160i bk7: 38272a 4933374i bk8: 38272a 4876628i bk9: 38272a 4863471i bk10: 38184a 4340197i bk11: 38184a 4308142i bk12: 38144a 4846587i bk13: 38144a 4834103i bk14: 38168a 4807948i bk15: 38168a 4787363i 

------------------------------------------------------------------------

Row_Buffer_Locality = 0.745703
Row_Buffer_Locality_read = 0.809218
Row_Buffer_Locality_write = 0.447647
Bank_Level_Parallism = 7.008209
Bank_Level_Parallism_Col = 5.852572
Bank_Level_Parallism_Ready = 3.161480
write_to_read_ratio_blp_rw_average = 0.483501
GrpLevelPara = 2.994615 

BW Util details:
bwutil = 0.635959 
total_CMD = 7127600 
util_bw = 4532864 
Wasted_Col = 956830 
Wasted_Row = 175724 
Idle = 1462182 

BW Util Bottlenecks: 
RCDc_limit = 595636 
RCDWRc_limit = 192160 
WTRc_limit = 907969 
RTWc_limit = 968118 
CCDLc_limit = 591742 
rwq = 0 
CCDLc_limit_alone = 442231 
WTRc_limit_alone = 838365 
RTWc_limit_alone = 888211 

Commands details: 
total_CMD = 7127600 
n_nop = 5652637 
Read = 611760 
Write = 0 
L2_Alloc = 0 
L2_WB = 521456 
n_act = 188734 
n_pre = 188718 
n_ref = 0 
n_req = 742124 
total_req = 1133216 

Dual Bus Interface Util: 
issued_total_row = 377452 
issued_total_col = 1133216 
Row_Bus_Util =  0.052956 
CoL_Bus_Util = 0.158990 
Either_Row_CoL_Bus_Util = 0.206937 
Issued_on_Two_Bus_Simul_Util = 0.005009 
issued_two_Eff = 0.024207 
queue_avg = 16.228840 


dram_util_bins: 0 0 0 0 0 0 0 0 0 0
dram_eff_bins: 0 0 0 0 0 0 0 0 0 0
mrqq: max=64 avg=16.2288
Memory Partition 10: 
Cache L2_bank_020:
MSHR contents

Cache L2_bank_021:
MSHR contents

In Dram Latency Queue (total = 0): 
DRAM[10]: 16 bks, busW=2 BL=16 CL=24, tRRD=12 tCCD=4, tRCD=24 tRAS=55 tRP=24 tRC=78
n_cmd=7127600 n_nop=5656331 n_act=186748 n_pre=186732 n_ref_event=0 n_req=742127 n_rd=611760 n_rd_L2_A=0 n_write=0 n_wr_bk=521468 bw_util=0.636
n_activity=5894614 dram_eff=0.769
bk0: 38272a 4802362i bk1: 38272a 4789728i bk2: 38272a 4833116i bk3: 38272a 4797990i bk4: 38296a 4295654i bk5: 38296a 4291326i bk6: 38272a 4892374i bk7: 38272a 4906220i bk8: 38272a 4870161i bk9: 38272a 4837607i bk10: 38184a 4340828i bk11: 38184a 4315920i bk12: 38144a 4809156i bk13: 38144a 4818665i bk14: 38168a 4797178i bk15: 38168a 4771970i 

------------------------------------------------------------------------

Row_Buffer_Locality = 0.748380
Row_Buffer_Locality_read = 0.812067
Row_Buffer_Locality_write = 0.449523
Bank_Level_Parallism = 7.073830
Bank_Level_Parallism_Col = 5.935091
Bank_Level_Parallism_Ready = 3.202506
write_to_read_ratio_blp_rw_average = 0.484368
GrpLevelPara = 3.017920 

BW Util details:
bwutil = 0.635966 
total_CMD = 7127600 
util_bw = 4532912 
Wasted_Col = 942671 
Wasted_Row = 177276 
Idle = 1474741 

BW Util Bottlenecks: 
RCDc_limit = 580835 
RCDWRc_limit = 189288 
WTRc_limit = 900691 
RTWc_limit = 973349 
CCDLc_limit = 580608 
rwq = 0 
CCDLc_limit_alone = 432182 
WTRc_limit_alone = 831624 
RTWc_limit_alone = 893990 

Commands details: 
total_CMD = 7127600 
n_nop = 5656331 
Read = 611760 
Write = 0 
L2_Alloc = 0 
L2_WB = 521468 
n_act = 186748 
n_pre = 186732 
n_ref = 0 
n_req = 742127 
total_req = 1133228 

Dual Bus Interface Util: 
issued_total_row = 373480 
issued_total_col = 1133228 
Row_Bus_Util =  0.052399 
CoL_Bus_Util = 0.158992 
Either_Row_CoL_Bus_Util = 0.206419 
Issued_on_Two_Bus_Simul_Util = 0.004972 
issued_two_Eff = 0.024087 
queue_avg = 16.742765 


dram_util_bins: 0 0 0 0 0 0 0 0 0 0
dram_eff_bins: 0 0 0 0 0 0 0 0 0 0
mrqq: max=64 avg=16.7428
Memory Partition 11: 
Cache L2_bank_022:
MSHR contents

Cache L2_bank_023:
MSHR contents

In Dram Latency Queue (total = 0): 
DRAM[11]: 16 bks, busW=2 BL=16 CL=24, tRRD=12 tCCD=4, tRCD=24 tRAS=55 tRP=24 tRC=78
n_cmd=7127600 n_nop=5655565 n_act=187374 n_pre=187358 n_ref_event=0 n_req=742124 n_rd=611760 n_rd_L2_A=0 n_write=0 n_wr_bk=521456 bw_util=0.636
n_activity=5872857 dram_eff=0.7718
bk0: 38272a 4765394i bk1: 38272a 4765452i bk2: 38272a 4828349i bk3: 38272a 4777652i bk4: 38296a 4290429i bk5: 38296a 4260760i bk6: 38272a 4889388i bk7: 38272a 4879156i bk8: 38272a 4851469i bk9: 38272a 4809992i bk10: 38184a 4302634i bk11: 38184a 4274257i bk12: 38144a 4824000i bk13: 38144a 4798294i bk14: 38168a 4789590i bk15: 38168a 4751462i 

------------------------------------------------------------------------

Row_Buffer_Locality = 0.747535
Row_Buffer_Locality_read = 0.809831
Row_Buffer_Locality_write = 0.455202
Bank_Level_Parallism = 7.152011
Bank_Level_Parallism_Col = 5.994201
Bank_Level_Parallism_Ready = 3.231203
write_to_read_ratio_blp_rw_average = 0.480664
GrpLevelPara = 3.028744 

BW Util details:
bwutil = 0.635959 
total_CMD = 7127600 
util_bw = 4532864 
Wasted_Col = 933600 
Wasted_Row = 168898 
Idle = 1492238 

BW Util Bottlenecks: 
RCDc_limit = 590119 
RCDWRc_limit = 179823 
WTRc_limit = 911608 
RTWc_limit = 969664 
CCDLc_limit = 578656 
rwq = 0 
CCDLc_limit_alone = 429398 
WTRc_limit_alone = 842254 
RTWc_limit_alone = 889760 

Commands details: 
total_CMD = 7127600 
n_nop = 5655565 
Read = 611760 
Write = 0 
L2_Alloc = 0 
L2_WB = 521456 
n_act = 187374 
n_pre = 187358 
n_ref = 0 
n_req = 742124 
total_req = 1133216 

Dual Bus Interface Util: 
issued_total_row = 374732 
issued_total_col = 1133216 
Row_Bus_Util =  0.052575 
CoL_Bus_Util = 0.158990 
Either_Row_CoL_Bus_Util = 0.206526 
Issued_on_Two_Bus_Simul_Util = 0.005039 
issued_two_Eff = 0.024397 
queue_avg = 17.026033 


dram_util_bins: 0 0 0 0 0 0 0 0 0 0
dram_eff_bins: 0 0 0 0 0 0 0 0 0 0
mrqq: max=64 avg=17.026

========= L2 cache stats =========
L2_cache_bank[0]: Access = 639527, Miss = 524328, Miss_rate = 0.820, Pending_hits = 1103, Reservation_fails = 0
L2_cache_bank[1]: Access = 639415, Miss = 524328, Miss_rate = 0.820, Pending_hits = 561, Reservation_fails = 0
L2_cache_bank[2]: Access = 639435, Miss = 524328, Miss_rate = 0.820, Pending_hits = 1265, Reservation_fails = 0
L2_cache_bank[3]: Access = 639208, Miss = 524328, Miss_rate = 0.820, Pending_hits = 649, Reservation_fails = 0
L2_cache_bank[4]: Access = 639297, Miss = 524328, Miss_rate = 0.820, Pending_hits = 1016, Reservation_fails = 0
L2_cache_bank[5]: Access = 639428, Miss = 524328, Miss_rate = 0.820, Pending_hits = 584, Reservation_fails = 0
L2_cache_bank[6]: Access = 639343, Miss = 524328, Miss_rate = 0.820, Pending_hits = 982, Reservation_fails = 0
L2_cache_bank[7]: Access = 639486, Miss = 524328, Miss_rate = 0.820, Pending_hits = 503, Reservation_fails = 0
L2_cache_bank[8]: Access = 639544, Miss = 524328, Miss_rate = 0.820, Pending_hits = 1084, Reservation_fails = 0
L2_cache_bank[9]: Access = 639402, Miss = 524328, Miss_rate = 0.820, Pending_hits = 581, Reservation_fails = 0
L2_cache_bank[10]: Access = 639463, Miss = 524328, Miss_rate = 0.820, Pending_hits = 1248, Reservation_fails = 0
L2_cache_bank[11]: Access = 639181, Miss = 524328, Miss_rate = 0.820, Pending_hits = 649, Reservation_fails = 0
L2_cache_bank[12]: Access = 639216, Miss = 524328, Miss_rate = 0.820, Pending_hits = 1074, Reservation_fails = 80
L2_cache_bank[13]: Access = 639412, Miss = 524328, Miss_rate = 0.820, Pending_hits = 620, Reservation_fails = 0
L2_cache_bank[14]: Access = 639310, Miss = 524328, Miss_rate = 0.820, Pending_hits = 1023, Reservation_fails = 0
L2_cache_bank[15]: Access = 639467, Miss = 524328, Miss_rate = 0.820, Pending_hits = 510, Reservation_fails = 0
L2_cache_bank[16]: Access = 639519, Miss = 524336, Miss_rate = 0.820, Pending_hits = 1118, Reservation_fails = 0
L2_cache_bank[17]: Access = 639408, Miss = 524336, Miss_rate = 0.820, Pending_hits = 577, Reservation_fails = 0
L2_cache_bank[18]: Access = 639427, Miss = 524336, Miss_rate = 0.820, Pending_hits = 1216, Reservation_fails = 0
L2_cache_bank[19]: Access = 639219, Miss = 524336, Miss_rate = 0.820, Pending_hits = 643, Reservation_fails = 0
L2_cache_bank[20]: Access = 639276, Miss = 524336, Miss_rate = 0.820, Pending_hits = 1057, Reservation_fails = 0
L2_cache_bank[21]: Access = 639396, Miss = 524336, Miss_rate = 0.820, Pending_hits = 616, Reservation_fails = 0
L2_cache_bank[22]: Access = 639366, Miss = 524336, Miss_rate = 0.820, Pending_hits = 977, Reservation_fails = 0
L2_cache_bank[23]: Access = 639473, Miss = 524336, Miss_rate = 0.820, Pending_hits = 530, Reservation_fails = 0
L2_total_cache_accesses = 15345218
L2_total_cache_misses = 12583936
L2_total_cache_miss_rate = 0.8201
L2_total_cache_pending_hits = 20186
L2_total_cache_reservation_fails = 80
L2_total_cache_breakdown:
	L2_cache_stats_breakdown[GLOBAL_ACC_R][HIT] = 1692520
	L2_cache_stats_breakdown[GLOBAL_ACC_R][HIT_RESERVED] = 20186
	L2_cache_stats_breakdown[GLOBAL_ACC_R][MISS] = 1835264
	L2_cache_stats_breakdown[GLOBAL_ACC_R][RESERVATION_FAIL] = 80
	L2_cache_stats_breakdown[GLOBAL_ACC_R][SECTOR_MISS] = 5505792
	L2_cache_stats_breakdown[GLOBAL_ACC_R][MSHR_HIT] = 20186
	L2_cache_stats_breakdown[LOCAL_ACC_R][HIT] = 0
	L2_cache_stats_breakdown[LOCAL_ACC_R][HIT_RESERVED] = 0
	L2_cache_stats_breakdown[LOCAL_ACC_R][MISS] = 0
	L2_cache_stats_breakdown[LOCAL_ACC_R][RESERVATION_FAIL] = 0
	L2_cache_stats_breakdown[LOCAL_ACC_R][SECTOR_MISS] = 0
	L2_cache_stats_breakdown[LOCAL_ACC_R][MSHR_HIT] = 0
	L2_cache_stats_breakdown[CONST_ACC_R][HIT] = 0
	L2_cache_stats_breakdown[CONST_ACC_R][HIT_RESERVED] = 0
	L2_cache_stats_breakdown[CONST_ACC_R][MISS] = 0
	L2_cache_stats_breakdown[CONST_ACC_R][RESERVATION_FAIL] = 0
	L2_cache_stats_breakdown[CONST_ACC_R][SECTOR_MISS] = 0
	L2_cache_stats_breakdown[CONST_ACC_R][MSHR_HIT] = 0
	L2_cache_stats_breakdown[TEXTURE_ACC_R][HIT] = 0
	L2_cache_stats_breakdown[TEXTURE_ACC_R][HIT_RESERVED] = 0
	L2_cache_stats_breakdown[TEXTURE_ACC_R][MISS] = 0
	L2_cache_stats_breakdown[TEXTURE_ACC_R][RESERVATION_FAIL] = 0
	L2_cache_stats_breakdown[TEXTURE_ACC_R][SECTOR_MISS] = 0
	L2_cache_stats_breakdown[TEXTURE_ACC_R][MSHR_HIT] = 0
	L2_cache_stats_breakdown[GLOBAL_ACC_W][HIT] = 1048576
	L2_cache_stats_breakdown[GLOBAL_ACC_W][HIT_RESERVED] = 0
	L2_cache_stats_breakdown[GLOBAL_ACC_W][MISS] = 1310720
	L2_cache_stats_breakdown[GLOBAL_ACC_W][RESERVATION_FAIL] = 0
	L2_cache_stats_breakdown[GLOBAL_ACC_W][SECTOR_MISS] = 3932160
	L2_cache_stats_breakdown[GLOBAL_ACC_W][MSHR_HIT] = 0
	L2_cache_stats_breakdown[LOCAL_ACC_W][HIT] = 0
	L2_cache_stats_breakdown[LOCAL_ACC_W][HIT_RESERVED] = 0
	L2_cache_stats_breakdown[LOCAL_ACC_W][MISS] = 0
	L2_cache_stats_breakdown[LOCAL_ACC_W][RESERVATION_FAIL] = 0
	L2_cache_stats_breakdown[LOCAL_ACC_W][SECTOR_MISS] = 0
	L2_cache_stats_breakdown[LOCAL_ACC_W][MSHR_HIT] = 0
	L2_cache_stats_breakdown[L1_WRBK_ACC][HIT] = 0
	L2_cache_stats_breakdown[L1_WRBK_ACC][HIT_RESERVED] = 0
	L2_cache_stats_breakdown[L1_WRBK_ACC][MISS] = 0
	L2_cache_stats_breakdown[L1_WRBK_ACC][RESERVATION_FAIL] = 0
	L2_cache_stats_breakdown[L1_WRBK_ACC][SECTOR_MISS] = 0
	L2_cache_stats_breakdown[L1_WRBK_ACC][MSHR_HIT] = 0
	L2_cache_stats_breakdown[L2_WRBK_ACC][HIT] = 0
	L2_cache_stats_breakdown[L2_WRBK_ACC][HIT_RESERVED] = 0
	L2_cache_stats_breakdown[L2_WRBK_ACC][MISS] = 0
	L2_cache_stats_breakdown[L2_WRBK_ACC][RESERVATION_FAIL] = 0
	L2_cache_stats_breakdown[L2_WRBK_ACC][SECTOR_MISS] = 0
	L2_cache_stats_breakdown[L2_WRBK_ACC][MSHR_HIT] = 0
	L2_cache_stats_breakdown[INST_ACC_R][HIT] = 0
	L2_cache_stats_breakdown[INST_ACC_R][HIT_RESERVED] = 0
	L2_cache_stats_breakdown[INST_ACC_R][MISS] = 0
	L2_cache_stats_breakdown[INST_ACC_R][RESERVATION_FAIL] = 0
	L2_cache_stats_breakdown[INST_ACC_R][SECTOR_MISS] = 0
	L2_cache_stats_breakdown[INST_ACC_R][MSHR_HIT] = 0
	L2_cache_stats_breakdown[L1_WR_ALLOC_R][HIT] = 0
	L2_cache_stats_breakdown[L1_WR_ALLOC_R][HIT_RESERVED] = 0
	L2_cache_stats_breakdown[L1_WR_ALLOC_R][MISS] = 0
	L2_cache_stats_breakdown[L1_WR_ALLOC_R][RESERVATION_FAIL] = 0
	L2_cache_stats_breakdown[L1_WR_ALLOC_R][SECTOR_MISS] = 0
	L2_cache_stats_breakdown[L1_WR_ALLOC_R][MSHR_HIT] = 0
	L2_cache_stats_breakdown[L2_WR_ALLOC_R][HIT] = 0
	L2_cache_stats_breakdown[L2_WR_ALLOC_R][HIT_RESERVED] = 0
	L2_cache_stats_breakdown[L2_WR_ALLOC_R][MISS] = 0
	L2_cache_stats_breakdown[L2_WR_ALLOC_R][RESERVATION_FAIL] = 0
	L2_cache_stats_breakdown[L2_WR_ALLOC_R][SECTOR_MISS] = 0
	L2_cache_stats_breakdown[L2_WR_ALLOC_R][MSHR_HIT] = 0
	L2_cache_stats_breakdown[GLOBAL_ACC_R][TOTAL_ACCESS] = 9053762
	L2_cache_stats_breakdown[GLOBAL_ACC_W][TOTAL_ACCESS] = 6291456
L2_total_cache_reservation_fail_breakdown:
	L2_cache_stats_fail_breakdown[GLOBAL_ACC_R][MSHR_ENRTY_FAIL] = 80
L2_cache_data_port_util = 0.105
L2_cache_fill_port_util = 0.110

icnt_total_pkts_mem_to_simt=15345218
icnt_total_pkts_simt_to_mem=15345218
LD_mem_lat_dist  0 0 0 0 0 0 0 0 0 0 0 0 0 0 0 0 0 0 0 0 0 0 0 0 0 0 0
ST_mem_lat_dist  0 0 0 0 0 0 0 0 0 0 0 0 0 0 0 0 0 0 0 0 0 0 0 0 0 0 0
----------------------------Interconnect-DETAILS--------------------------------
Req_Network_injected_packets_num = 15345218
Req_Network_cycles = 2779370
Req_Network_injected_packets_per_cycle =       5.5211 
Req_Network_conflicts_per_cycle =       1.3145
Req_Network_conflicts_per_cycle_util =       1.3801
Req_Bank_Level_Parallism =       5.7967
Req_Network_in_buffer_full_per_cycle =       0.0000
Req_Network_in_buffer_avg_util =       1.6353
Req_Network_out_buffer_full_per_cycle =       0.0000
Req_Network_out_buffer_avg_util =       1.7589

Reply_Network_injected_packets_num = 15345218
Reply_Network_cycles = 2779370
Reply_Network_injected_packets_per_cycle =        5.5211
Reply_Network_conflicts_per_cycle =        3.7221
Reply_Network_conflicts_per_cycle_util =       3.8686
Reply_Bank_Level_Parallism =       5.7383
Reply_Network_in_buffer_full_per_cycle =       0.0000
Reply_Network_in_buffer_avg_util =       3.7244
Reply_Network_out_buffer_full_per_cycle =       0.0000
Reply_Network_out_buffer_avg_util =       0.1840
----------------------------END-of-Interconnect-DETAILS-------------------------


gpgpu_simulation_time = 0 days, 9 hrs, 26 min, 58 sec (34018 sec)
gpgpu_simulation_rate = 64246 (inst/sec)
gpgpu_simulation_rate = 81 (cycle/sec)
gpgpu_silicon_slowdown = 16851851x
GPGPU-Sim: synchronize waiting for inactive GPU simulation
GPGPU-Sim API: Stream Manager State
GPGPU-Sim: detected inactive GPU simulation thread
Computation Done
GPGPU-Sim: *** exit detected ***
