

        *** GPGPU-Sim Simulator Version 4.2.0  [build gpgpu-sim_git-commit-5e9d31b8132651796656877ecb58fde27177ba7a_modified_315.0] ***


GPGPU-Sim PTX: simulation mode 0 (can change with PTX_SIM_MODE_FUNC environment variable:
               1=functional simulation only, 0=detailed performance simulator)
GPGPU-Sim PTX: overriding embedded ptx with ptx file (PTX_SIM_USE_PTX_FILE is set)
GPGPU-Sim: Configuration options:

-save_embedded_ptx                      0 # saves ptx files embedded in binary as <n>.ptx
-keep                                   0 # keep intermediate files created by GPGPU-Sim when interfacing with external programs
-gpgpu_ptx_save_converted_ptxplus                    0 # Saved converted ptxplus to a file
-gpgpu_occupancy_sm_number                   75 # The SM number to pass to ptxas when getting register usage for computing GPU occupancy. This parameter is required in the config.
-ptx_opcode_latency_int           4,4,4,4,21 # Opcode latencies for integers <ADD,MAX,MUL,MAD,DIV,SHFL>Default 1,1,19,25,145,32
-ptx_opcode_latency_fp           4,4,4,4,39 # Opcode latencies for single precision floating points <ADD,MAX,MUL,MAD,DIV>Default 1,1,1,1,30
-ptx_opcode_latency_dp      64,64,64,64,330 # Opcode latencies for double precision floating points <ADD,MAX,MUL,MAD,DIV>Default 8,8,8,8,335
-ptx_opcode_latency_sfu                   21 # Opcode latencies for SFU instructionsDefault 8
-ptx_opcode_latency_tesnor                   64 # Opcode latencies for Tensor instructionsDefault 64
-ptx_opcode_initiation_int            2,2,2,2,2 # Opcode initiation intervals for integers <ADD,MAX,MUL,MAD,DIV,SHFL>Default 1,1,4,4,32,4
-ptx_opcode_initiation_fp            2,2,2,2,4 # Opcode initiation intervals for single precision floating points <ADD,MAX,MUL,MAD,DIV>Default 1,1,1,1,5
-ptx_opcode_initiation_dp      64,64,64,64,130 # Opcode initiation intervals for double precision floating points <ADD,MAX,MUL,MAD,DIV>Default 8,8,8,8,130
-ptx_opcode_initiation_sfu                    8 # Opcode initiation intervals for sfu instructionsDefault 8
-ptx_opcode_initiation_tensor                   64 # Opcode initiation intervals for tensor instructionsDefault 64
-cdp_latency         7200,8000,100,12000,1600 # CDP API latency <cudaStreamCreateWithFlags, cudaGetParameterBufferV2_init_perWarp, cudaGetParameterBufferV2_perKernel, cudaLaunchDeviceV2_init_perWarp, cudaLaunchDevicV2_perKernel>Default 7200,8000,100,12000,1600
-network_mode                           2 # Interconnection network mode
-inter_config_file                   mesh # Interconnection network config file
-icnt_in_buffer_limit                  512 # in_buffer_limit
-icnt_out_buffer_limit                  512 # out_buffer_limit
-icnt_subnets                           2 # subnets
-icnt_arbiter_algo                      1 # arbiter_algo
-icnt_verbose                           0 # inct_verbose
-icnt_grant_cycles                      1 # grant_cycles
-gpgpu_ptx_use_cuobjdump                    1 # Use cuobjdump to extract ptx and sass from binaries
-gpgpu_experimental_lib_support                    0 # Try to extract code from cuda libraries [Broken because of unknown cudaGetExportTable]
-checkpoint_option                      0 #  checkpointing flag (0 = no checkpoint)
-checkpoint_kernel                      1 #  checkpointing during execution of which kernel (1- 1st kernel)
-checkpoint_CTA                         0 #  checkpointing after # of CTA (< less than total CTA)
-resume_option                          0 #  resume flag (0 = no resume)
-resume_kernel                          0 #  Resume from which kernel (1= 1st kernel)
-resume_CTA                             0 #  resume from which CTA 
-checkpoint_CTA_t                       0 #  resume from which CTA 
-checkpoint_insn_Y                      0 #  resume from which CTA 
-gpgpu_ptx_convert_to_ptxplus                    0 # Convert SASS (native ISA) to ptxplus and run ptxplus
-gpgpu_ptx_force_max_capability                   75 # Force maximum compute capability
-gpgpu_ptx_inst_debug_to_file                    0 # Dump executed instructions' debug information to file
-gpgpu_ptx_inst_debug_file       inst_debug.txt # Executed instructions' debug output file
-gpgpu_ptx_inst_debug_thread_uid                    1 # Thread UID for executed instructions' debug output
-gpgpu_simd_model                       1 # 1 = post-dominator
-gpgpu_shader_core_pipeline              1024:32 # shader core pipeline config, i.e., {<nthread>:<warpsize>}
-gpgpu_tex_cache:l1  N:4:128:256,L:R:m:N:L,T:512:8,128:2 # per-shader L1 texture cache  (READ-ONLY) config  {<nsets>:<bsize>:<assoc>,<rep>:<wr>:<alloc>:<wr_alloc>,<mshr>:<N>:<merge>,<mq>:<rf>}
-gpgpu_const_cache:l1 N:128:64:8,L:R:f:N:L,S:2:64,4 # per-shader L1 constant memory cache  (READ-ONLY) config  {<nsets>:<bsize>:<assoc>,<rep>:<wr>:<alloc>:<wr_alloc>,<mshr>:<N>:<merge>,<mq>} 
-gpgpu_cache:il1     N:64:128:16,L:R:f:N:L,S:2:48,4 # shader L1 instruction cache config  {<nsets>:<bsize>:<assoc>,<rep>:<wr>:<alloc>:<wr_alloc>,<mshr>:<N>:<merge>,<mq>} 
-gpgpu_cache:dl1     S:4:128:64,L:T:m:L:L,A:256:32,16:0,32 # per-shader L1 data cache config  {<nsets>:<bsize>:<assoc>,<rep>:<wr>:<alloc>:<wr_alloc>,<mshr>:<N>:<merge>,<mq> | none}
-gpgpu_l1_cache_write_ratio                   25 # L1D write ratio
-gpgpu_l1_banks                         4 # The number of L1 cache banks
-gpgpu_l1_banks_byte_interleaving                   32 # l1 banks byte interleaving granularity
-gpgpu_l1_banks_hashing_function                    0 # l1 banks hashing function
-gpgpu_l1_latency                      32 # L1 Hit Latency
-gpgpu_smem_latency                    30 # smem Latency
-gpgpu_cache:dl1PrefL1                 none # per-shader L1 data cache config  {<nsets>:<bsize>:<assoc>,<rep>:<wr>:<alloc>:<wr_alloc>,<mshr>:<N>:<merge>,<mq> | none}
-gpgpu_cache:dl1PrefShared                 none # per-shader L1 data cache config  {<nsets>:<bsize>:<assoc>,<rep>:<wr>:<alloc>:<wr_alloc>,<mshr>:<N>:<merge>,<mq> | none}
-gpgpu_gmem_skip_L1D                    0 # global memory access skip L1D cache (implements -Xptxas -dlcm=cg, default=no skip)
-gpgpu_perfect_mem                      0 # enable perfect memory mode (no cache miss)
-n_regfile_gating_group                    4 # group of lanes that should be read/written together)
-gpgpu_clock_gated_reg_file                    0 # enable clock gated reg file for power calculations
-gpgpu_clock_gated_lanes                    0 # enable clock gated lanes for power calculations
-gpgpu_shader_registers                65536 # Number of registers per shader core. Limits number of concurrent CTAs. (default 8192)
-gpgpu_registers_per_block                65536 # Maximum number of registers per CTA. (default 8192)
-gpgpu_ignore_resources_limitation                    0 # gpgpu_ignore_resources_limitation (default 0)
-gpgpu_shader_cta                      16 # Maximum number of concurrent CTAs in shader (default 32)
-gpgpu_num_cta_barriers                   16 # Maximum number of named barriers per CTA (default 16)
-gpgpu_n_clusters                      30 # number of processing clusters
-gpgpu_n_cores_per_cluster                    1 # number of simd cores per cluster
-gpgpu_n_cluster_ejection_buffer_size                   32 # number of packets in ejection buffer
-gpgpu_n_ldst_response_buffer_size                    2 # number of response packets in ld/st unit ejection buffer
-gpgpu_shmem_per_block                49152 # Size of shared memory per thread block or CTA (default 48kB)
-gpgpu_shmem_size                   65536 # Size of shared memory per shader core (default 16kB)
-gpgpu_shmem_option                 32,64 # Option list of shared memory sizes
-gpgpu_unified_l1d_size                   96 # Size of unified data cache(L1D + shared memory) in KB
-gpgpu_adaptive_cache_config                    1 # adaptive_cache_config
-gpgpu_shmem_sizeDefault                65536 # Size of shared memory per shader core (default 16kB)
-gpgpu_shmem_size_PrefL1                16384 # Size of shared memory per shader core (default 16kB)
-gpgpu_shmem_size_PrefShared                16384 # Size of shared memory per shader core (default 16kB)
-gpgpu_shmem_num_banks                   32 # Number of banks in the shared memory in each shader core (default 16)
-gpgpu_shmem_limited_broadcast                    0 # Limit shared memory to do one broadcast per cycle (default on)
-gpgpu_shmem_warp_parts                    1 # Number of portions a warp is divided into for shared memory bank conflict check 
-gpgpu_mem_unit_ports                    1 # The number of memory transactions allowed per core cycle
-gpgpu_shmem_warp_parts                    1 # Number of portions a warp is divided into for shared memory bank conflict check 
-gpgpu_warpdistro_shader                   -1 # Specify which shader core to collect the warp size distribution from
-gpgpu_warp_issue_shader                    0 # Specify which shader core to collect the warp issue distribution from
-gpgpu_local_mem_map                    1 # Mapping from local memory space address to simulated GPU physical address space (default = enabled)
-gpgpu_num_reg_banks                    8 # Number of register banks (default = 8)
-gpgpu_reg_bank_use_warp_id                    0 # Use warp ID in mapping registers to banks (default = off)
-gpgpu_sub_core_model                    1 # Sub Core Volta/Pascal model (default = off)
-gpgpu_enable_specialized_operand_collector                    0 # enable_specialized_operand_collector
-gpgpu_operand_collector_num_units_sp                    4 # number of collector units (default = 4)
-gpgpu_operand_collector_num_units_dp                    0 # number of collector units (default = 0)
-gpgpu_operand_collector_num_units_sfu                    4 # number of collector units (default = 4)
-gpgpu_operand_collector_num_units_int                    0 # number of collector units (default = 0)
-gpgpu_operand_collector_num_units_tensor_core                    4 # number of collector units (default = 4)
-gpgpu_operand_collector_num_units_mem                    2 # number of collector units (default = 2)
-gpgpu_operand_collector_num_units_gen                    8 # number of collector units (default = 0)
-gpgpu_operand_collector_num_in_ports_sp                    1 # number of collector unit in ports (default = 1)
-gpgpu_operand_collector_num_in_ports_dp                    0 # number of collector unit in ports (default = 0)
-gpgpu_operand_collector_num_in_ports_sfu                    1 # number of collector unit in ports (default = 1)
-gpgpu_operand_collector_num_in_ports_int                    0 # number of collector unit in ports (default = 0)
-gpgpu_operand_collector_num_in_ports_tensor_core                    1 # number of collector unit in ports (default = 1)
-gpgpu_operand_collector_num_in_ports_mem                    1 # number of collector unit in ports (default = 1)
-gpgpu_operand_collector_num_in_ports_gen                    8 # number of collector unit in ports (default = 0)
-gpgpu_operand_collector_num_out_ports_sp                    1 # number of collector unit in ports (default = 1)
-gpgpu_operand_collector_num_out_ports_dp                    0 # number of collector unit in ports (default = 0)
-gpgpu_operand_collector_num_out_ports_sfu                    1 # number of collector unit in ports (default = 1)
-gpgpu_operand_collector_num_out_ports_int                    0 # number of collector unit in ports (default = 0)
-gpgpu_operand_collector_num_out_ports_tensor_core                    1 # number of collector unit in ports (default = 1)
-gpgpu_operand_collector_num_out_ports_mem                    1 # number of collector unit in ports (default = 1)
-gpgpu_operand_collector_num_out_ports_gen                    8 # number of collector unit in ports (default = 0)
-gpgpu_coalesce_arch                   75 # Coalescing arch (GT200 = 13, Fermi = 20)
-gpgpu_num_sched_per_core                    4 # Number of warp schedulers per core
-gpgpu_max_insn_issue_per_warp                    1 # Max number of instructions that can be issued per warp in one cycle by scheduler (either 1 or 2)
-gpgpu_dual_issue_diff_exec_units                    1 # should dual issue use two different execution unit resources (Default = 1)
-gpgpu_simt_core_sim_order                    1 # Select the simulation order of cores in a cluster (0=Fix, 1=Round-Robin)
-gpgpu_pipeline_widths 4,4,4,4,4,4,4,4,4,4,8,4,4 # Pipeline widths ID_OC_SP,ID_OC_DP,ID_OC_INT,ID_OC_SFU,ID_OC_MEM,OC_EX_SP,OC_EX_DP,OC_EX_INT,OC_EX_SFU,OC_EX_MEM,EX_WB,ID_OC_TENSOR_CORE,OC_EX_TENSOR_CORE
-gpgpu_tensor_core_avail                    1 # Tensor Core Available (default=0)
-gpgpu_num_sp_units                     4 # Number of SP units (default=1)
-gpgpu_num_dp_units                     4 # Number of DP units (default=0)
-gpgpu_num_int_units                    4 # Number of INT units (default=0)
-gpgpu_num_sfu_units                    4 # Number of SF units (default=1)
-gpgpu_num_tensor_core_units                    4 # Number of tensor_core units (default=1)
-gpgpu_num_mem_units                    1 # Number if ldst units (default=1) WARNING: not hooked up to anything
-gpgpu_scheduler                      lrr # Scheduler configuration: < lrr | gto | two_level_active > If two_level_active:<num_active_warps>:<inner_prioritization>:<outer_prioritization>For complete list of prioritization values see shader.h enum scheduler_prioritization_typeDefault: gto
-gpgpu_concurrent_kernel_sm                    0 # Support concurrent kernels on a SM (default = disabled)
-gpgpu_perfect_inst_const_cache                    1 # perfect inst and const cache mode, so all inst and const hits in the cache(default = disabled)
-gpgpu_inst_fetch_throughput                    4 # the number of fetched intruction per warp each cycle
-gpgpu_reg_file_port_throughput                    2 # the number ports of the register file
-specialized_unit_1         0,4,4,4,4,BRA # specialized unit config {<enabled>,<num_units>:<latency>:<initiation>,<ID_OC_SPEC>:<OC_EX_SPEC>,<NAME>}
-specialized_unit_2         0,4,4,4,4,BRA # specialized unit config {<enabled>,<num_units>:<latency>:<initiation>,<ID_OC_SPEC>:<OC_EX_SPEC>,<NAME>}
-specialized_unit_3         0,4,4,4,4,BRA # specialized unit config {<enabled>,<num_units>:<latency>:<initiation>,<ID_OC_SPEC>:<OC_EX_SPEC>,<NAME>}
-specialized_unit_4         0,4,4,4,4,BRA # specialized unit config {<enabled>,<num_units>:<latency>:<initiation>,<ID_OC_SPEC>:<OC_EX_SPEC>,<NAME>}
-specialized_unit_5         0,4,4,4,4,BRA # specialized unit config {<enabled>,<num_units>:<latency>:<initiation>,<ID_OC_SPEC>:<OC_EX_SPEC>,<NAME>}
-specialized_unit_6         0,4,4,4,4,BRA # specialized unit config {<enabled>,<num_units>:<latency>:<initiation>,<ID_OC_SPEC>:<OC_EX_SPEC>,<NAME>}
-specialized_unit_7         0,4,4,4,4,BRA # specialized unit config {<enabled>,<num_units>:<latency>:<initiation>,<ID_OC_SPEC>:<OC_EX_SPEC>,<NAME>}
-specialized_unit_8         0,4,4,4,4,BRA # specialized unit config {<enabled>,<num_units>:<latency>:<initiation>,<ID_OC_SPEC>:<OC_EX_SPEC>,<NAME>}
-gpgpu_perf_sim_memcpy                    1 # Fill the L2 cache on memcpy
-gpgpu_simple_dram_model                    0 # simple_dram_model with fixed latency and BW
-gpgpu_dram_scheduler                    1 # 0 = fifo, 1 = FR-FCFS (defaul)
-gpgpu_dram_partition_queues          64:64:64:64 # i2$:$2d:d2$:$2i
-l2_ideal                               0 # Use a ideal L2 cache that always hit
-gpgpu_cache:dl2     S:64:128:16,L:B:m:L:P,A:192:4,32:0,32 # unified banked L2 data cache config  {<nsets>:<bsize>:<assoc>,<rep>:<wr>:<alloc>:<wr_alloc>,<mshr>:<N>:<merge>,<mq>}
-gpgpu_cache:dl2_texture_only                    0 # L2 cache used for texture only
-gpgpu_n_mem                           12 # number of memory modules (e.g. memory controllers) in gpu
-gpgpu_n_sub_partition_per_mchannel                    2 # number of memory subpartition in each memory module
-gpgpu_n_mem_per_ctrlr                    1 # number of memory chips per memory controller
-gpgpu_memlatency_stat                   14 # track and display latency statistics 0x2 enables MC, 0x4 enables queue logs
-gpgpu_frfcfs_dram_sched_queue_size                   64 # 0 = unlimited (default); # entries per chip
-gpgpu_dram_return_queue_size                  192 # 0 = unlimited (default); # entries per chip
-gpgpu_dram_buswidth                    2 # default = 4 bytes (8 bytes per cycle at DDR)
-gpgpu_dram_burst_length                   16 # Burst length of each DRAM request (default = 4 data bus cycle)
-dram_data_command_freq_ratio                    4 # Frequency ratio between DRAM data bus and command bus (default = 2 times, i.e. DDR)
-gpgpu_dram_timing_opt nbk=16:CCD=4:RRD=12:RCD=24:RAS=55:RP=24:RC=78:CL=24:WL=8:CDLR=10:WR=24:nbkgrp=4:CCDL=6:RTPL=4 # DRAM timing parameters = {nbk:tCCD:tRRD:tRCD:tRAS:tRP:tRC:CL:WL:tCDLR:tWR:nbkgrp:tCCDL:tRTPL}
-gpgpu_l2_rop_latency                  194 # ROP queue latency (default 85)
-dram_latency                          96 # DRAM latency (default 30)
-dram_dual_bus_interface                    0 # dual_bus_interface (default = 0) 
-dram_bnk_indexing_policy                    0 # dram_bnk_indexing_policy (0 = normal indexing, 1 = Xoring with the higher bits) (Default = 0)
-dram_bnkgrp_indexing_policy                    1 # dram_bnkgrp_indexing_policy (0 = take higher bits, 1 = take lower bits) (Default = 0)
-dram_seperate_write_queue_enable                    0 # Seperate_Write_Queue_Enable
-dram_write_queue_size             32:28:16 # Write_Queue_Size
-dram_elimnate_rw_turnaround                    0 # elimnate_rw_turnaround i.e set tWTR and tRTW = 0
-icnt_flit_size                        40 # icnt_flit_size
-icnt_flit_size                        40 # icnt_flit_size
-mem_profiler                           0 # memory access runtime profiling (0 = not enabled)
-gpgpu_mem_addr_mapping dramid@8;00000000.00000000.00000000.00000000.0000RRRR.RRRRRRRR.RBBBCCCC.BCCSSSSS # mapping memory address to dram model {dramid@<start bit>;<memory address map>}
-gpgpu_mem_addr_test                    0 # run sweep test to check address mapping for aliased address
-gpgpu_mem_address_mask                    1 # 0 = old addressing mask, 1 = new addressing mask, 2 = new add. mask + flipped bank sel and chip sel bits
-gpgpu_memory_partition_indexing                    0 # 0 = no indexing, 1 = bitwise xoring, 2 = IPoly, 3 = custom indexing
-accelwattch_xml_file accelwattch_sass_sim.xml # AccelWattch XML file
-power_simulation_enabled                    1 # Turn on power simulator (1=On, 0=Off)
-power_per_cycle_dump                    1 # Dump detailed power output each cycle
-hw_perf_file_name            hw_perf.csv # Hardware Performance Statistics file
-hw_perf_bench_name    hw_perf_bench_name # Kernel Name in Hardware Performance Statistics file
-power_simulation_mode                    0 # Switch performance counter input for power simulation (0=Sim, 1=HW, 2=HW-Sim Hybrid)
-dvfs_enabled                           1 # Turn on DVFS for power model
-aggregate_power_stats                    0 # Accumulate power across all kernels
-accelwattch_hybrid_perfsim_L1_RH                    0 # Get L1 Read Hits for Accelwattch-Hybrid from Accel-Sim
-accelwattch_hybrid_perfsim_L1_RM                    0 # Get L1 Read Misses for Accelwattch-Hybrid from Accel-Sim
-accelwattch_hybrid_perfsim_L1_WH                    0 # Get L1 Write Hits for Accelwattch-Hybrid from Accel-Sim
-accelwattch_hybrid_perfsim_L1_WM                    0 # Get L1 Write Misses for Accelwattch-Hybrid from Accel-Sim
-accelwattch_hybrid_perfsim_L2_RH                    0 # Get L2 Read Hits for Accelwattch-Hybrid from Accel-Sim
-accelwattch_hybrid_perfsim_L2_RM                    0 # Get L2 Read Misses for Accelwattch-Hybrid from Accel-Sim
-accelwattch_hybrid_perfsim_L2_WH                    0 # Get L2 Write Hits for Accelwattch-Hybrid from Accel-Sim
-accelwattch_hybrid_perfsim_L2_WM                    0 # Get L2 Write Misses for Accelwattch-Hybrid from Accel-Sim
-accelwattch_hybrid_perfsim_CC_ACC                    0 # Get Constant Cache Acesses for Accelwattch-Hybrid from Accel-Sim
-accelwattch_hybrid_perfsim_SHARED_ACC                    0 # Get Shared Memory Acesses for Accelwattch-Hybrid from Accel-Sim
-accelwattch_hybrid_perfsim_DRAM_RD                    0 # Get DRAM Reads for Accelwattch-Hybrid from Accel-Sim
-accelwattch_hybrid_perfsim_DRAM_WR                    0 # Get DRAM Writes for Accelwattch-Hybrid from Accel-Sim
-accelwattch_hybrid_perfsim_NOC                    0 # Get Interconnect Acesses for Accelwattch-Hybrid from Accel-Sim
-accelwattch_hybrid_perfsim_PIPE_DUTY                    0 # Get Pipeline Duty Cycle Acesses for Accelwattch-Hybrid from Accel-Sim
-accelwattch_hybrid_perfsim_NUM_SM_IDLE                    0 # Get Number of Idle SMs for Accelwattch-Hybrid from Accel-Sim
-accelwattch_hybrid_perfsim_CYCLES                    0 # Get Executed Cycles for Accelwattch-Hybrid from Accel-Sim
-accelwattch_hybrid_perfsim_VOLTAGE                    0 # Get Chip Voltage for Accelwattch-Hybrid from Accel-Sim
-power_trace_enabled                    0 # produce a file for the power trace (1=On, 0=Off)
-power_trace_zlevel                     0 # Compression level of the power trace output log (0=no comp, 9=highest)
-steady_power_levels_enabled                    0 # produce a file for the steady power levels (1=On, 0=Off)
-steady_state_definition                  8:4 # allowed deviation:number of samples
-gpgpu_max_cycle                        0 # terminates gpu simulation early (0 = no limit)
-gpgpu_max_insn                         0 # terminates gpu simulation early (0 = no limit)
-gpgpu_max_cta                          0 # terminates gpu simulation early (0 = no limit)
-gpgpu_max_completed_cta                    0 # terminates gpu simulation early (0 = no limit)
-gpgpu_runtime_stat                  1000 # display runtime statistics such as dram utilization {<freq>:<flag>}
-liveness_message_freq                    1 # Minimum number of seconds between simulation liveness messages (0 = always print)
-gpgpu_compute_capability_major                    7 # Major compute capability version number
-gpgpu_compute_capability_minor                    5 # Minor compute capability version number
-gpgpu_flush_l1_cache                    1 # Flush L1 cache at the end of each kernel call
-gpgpu_flush_l2_cache                    0 # Flush L2 cache at the end of each kernel call
-gpgpu_deadlock_detect                    1 # Stop the simulation at deadlock (1=on (default), 0=off)
-gpgpu_ptx_instruction_classification                    0 # if enabled will classify ptx instruction types per kernel (Max 255 kernels now)
-gpgpu_ptx_sim_mode                     0 # Select between Performance (default) or Functional simulation (1)
-gpgpu_clock_domains 1365:1365:1365:3500.5 # Clock Domain Frequencies in MhZ {<Core Clock>:<ICNT Clock>:<L2 Clock>:<DRAM Clock>}
-gpgpu_max_concurrent_kernel                  128 # maximum kernels that can run concurrently on GPU, set this value according to max resident grids for your compute capability
-gpgpu_cflog_interval                    0 # Interval between each snapshot in control flow logger
-visualizer_enabled                     0 # Turn on visualizer output (1=On, 0=Off)
-visualizer_outputfile                 NULL # Specifies the output log file for visualizer
-visualizer_zlevel                      6 # Compression level of the visualizer output log (0=no comp, 9=highest)
-gpgpu_stack_size_limit                 1024 # GPU thread stack size
-gpgpu_heap_size_limit              8388608 # GPU malloc heap size 
-gpgpu_runtime_sync_depth_limit                    2 # GPU device runtime synchronize depth
-gpgpu_runtime_pending_launch_count_limit                 2048 # GPU device runtime pending launch count
-trace_enabled                          0 # Turn on traces
-trace_components                    none # comma seperated list of traces to enable. Complete list found in trace_streams.tup. Default none
-trace_sampling_core                    0 # The core which is printed using CORE_DPRINTF. Default 0
-trace_sampling_memory_partition                   -1 # The memory partition which is printed using MEMPART_DPRINTF. Default -1 (i.e. all)
-enable_ptx_file_line_stats                    1 # Turn on PTX source line statistic profiling. (1 = On)
-ptx_line_stats_filename gpgpu_inst_stats.txt # Output file for PTX source line statistics.
-gpgpu_kernel_launch_latency                 5000 # Kernel launch latency in cycles. Default: 0
-gpgpu_cdp_enabled                      0 # Turn on CDP
-gpgpu_TB_launch_latency                    0 # thread block launch latency in cycles. Default: 0
-mem_runtime_stat                     100 # memory access runtime profiling sampling20be9959047424737a0422e874fccc2e  /home/pars/Documents/sim_8/cc_afforest
Extracting PTX file and ptxas options    1: cc_afforest.1.sm_75.ptx -arch=sm_75
 freq
-L1D_metrics                            0 # memory access runtime profiling for L1 data cache
-IPC_per_prof_interval                    0 # IPC per profiling interval
-instruction_monitor                    0 # Instruction monitor
-noncoal_metrics                        0 # memory access runtime profiling for shared memory
-L2_metrics                             0 # memory access runtime profiling for L2 cache
-DRAM_metrics                           0 # memory access runtime profiling for DRAM
-Shmem_metrics                          0 # memory access runtime profiling for noncoalesced accesses
-store_enable                           0 # Enable stores for memory profiling
-accumulate_stats                       0 # Accumulate stats for the memory profiling
-dump_enable                            0 # Process dump enable flag - (def = 0)
-flush_l1d                              0 # Enable flushings for L1D caches - (default = 0)
-flush_l2                               0 # Enable flushings for L2 caches - (default = 0)
-flush_dram                             0 # Enable flushings for DRAM - (default = 0)
-flush_noncoalesceds                    0 # Enable flushings for non coalesced accesses - (default = 0)
-flush_shmems                           0 # Enable flushings for shared memory accesses - (default = 0)
-error_percentage          21474836480001 # Error percentage for the flushes - (default = 1)
-dump_sampling_cycle       21474836485000 # Dump sampling frequency - (default = 5000)
-flush_acc_type                         2 # Flush access types
-monitor_sampling_cycle                 5000 # Monitoring sampling cycle - (default = 5000)
DRAM Timing Options:
nbk                                    16 # number of banks
CCD                                     4 # column to column delay
RRD                                    12 # minimal delay between activation of rows in different banks
RCD                                    24 # row to column delay
RAS                                    55 # time needed to activate row
RP                                     24 # time needed to precharge (deactivate) row
RC                                     78 # row cycle time
CDLR                                   10 # switching from write to read (changes tWTR)
WR                                     24 # last data-in to row precharge
CL                                     24 # CAS latency
WL                                      8 # Write latency
nbkgrp                                  4 # number of bank groups
CCDL                                    6 # column to column delay between accesses to different bank groups
RTPL                                    4 # read to precharge delay between accesses to different bank groups
Total number of memory sub partition = 24
addr_dec_mask[CHIP]  = 0000000000000000 	high:64 low:0
addr_dec_mask[BK]    = 0000000000007080 	high:15 low:7
addr_dec_mask[ROW]   = 000000000fff8000 	high:28 low:15
addr_dec_mask[COL]   = 0000000000000f7f 	high:12 low:0
addr_dec_mask[BURST] = 000000000000001f 	high:5 low:0
sub_partition_id_mask = 0000000000000080
GPGPU-Sim uArch: clock freqs: 1365000000.000000:1365000000.000000:1365000000.000000:3500500000.000000
GPGPU-Sim uArch: clock periods: 0.00000000073260073260:0.00000000073260073260:0.00000000073260073260:0.00000000028567347522
*** Initializing Memory Statistics ***
GPGPU-Sim uArch: performance model initialization complete.
self exe links to: /home/pars/Documents/sim_8/cc_afforest
self exe links to: /home/pars/Documents/sim_8/cc_afforest
11.0
GPGPU-Sim PTX: __cudaRegisterFatBinary, fat_cubin_handle = 1, filename=default
self exe links to: /home/pars/Documents/sim_8/cc_afforest
Running md5sum using "md5sum /home/pars/Documents/sim_8/cc_afforest "
self exe links to: /home/pars/Documents/sim_8/cc_afforest
Extracting specific PTX file named cc_afforest.1.sm_75.ptx 
GPGPU-Sim PTX: __cudaRegisterFunction _Z17afforest_directediiPKmPKiS0_S2_Pii : hostFun 0x0x55ef17f8c5b6, fat_cubin_handle = 1
GPGPU-Sim PTX: Parsing cc_afforest.1.sm_75.ptx
GPGPU-Sim PTX: instruction assembly for function '_Z8compressiPi'...   done.
GPGPU-Sim PTX: instruction assembly for function '_Z8afforestiPKmPKiPii'...   done.
GPGPU-Sim PTX: instruction assembly for function '_Z19afforest_undirectediiPKmPKiPii'...   done.
GPGPU-Sim PTX: instruction assembly for function '_Z17afforest_directediiPKmPKiS0_S2_Pii'...   done.
GPGPU-Sim PTX: finished parsing EMBEDDED .ptx file cc_afforest.1.sm_75.ptx
GPGPU-Sim PTX: loading globals with explicit initializers... 
GPGPU-Sim PTX: finished loading globals (0 bytes total).
GPGPU-Sim PTX: loading constants with explicit initializers...  done.
GPGPU-Sim PTX: Loading PTXInfo from cc_afforest.1.sm_75.ptx
GPGPU-Sim PTX: Kernel '_Z17afforest_directediiPKmPKiS0_S2_Pii' : regs=16, lmem=0, smem=0, cmem=404
GPGPU-Sim PTX: Kernel '_Z19afforest_undirectediiPKmPKiPii' : regs=16, lmem=0, smem=0, cmem=388
GPGPU-Sim PTX: Kernel '_Z8afforestiPKmPKiPii' : regs=12, lmem=0, smem=0, cmem=388
GPGPU-Sim PTX: Kernel '_Z8compressiPi' : regs=12, lmem=0, smem=0, cmem=368
GPGPU-Sim PTX: __cudaRegisterFunction _Z19afforest_undirectediiPKmPKiPii : hostFun 0x0x55ef17f8c382, fat_cubin_handle = 1
GPGPU-Sim PTX: __cudaRegisterFunction _Z8afforestiPKmPKiPii : hostFun 0x0x55ef17f8c19c, fat_cubin_handle = 1
GPGPU-Sim PTX: __cudaRegisterFunction _Z8compressiPi : hostFun 0x0x55ef17f8bff7, fat_cubin_handle = 1
Connected Component by Xuhao Chen
Reading (.mtx) input file ../CudaBenchmarks/gardenia/datasets/italy_osm.mtx
Removing redundent edges... 0 redundent edges are removed
|V| 6686493 |E| 7013978
This graph maintains both incomming and outgoing edge-list
Launching CUDA CC solver (26120 CTAs, 256 threads/CTA) ...
GPGPU-Sim PTX: Setting up arguments for 4 bytes starting at 0x7ffffe8fc8cc..
GPGPU-Sim PTX: Setting up arguments for 8 bytes starting at 0x7ffffe8fc8c0..
GPGPU-Sim PTX: Setting up arguments for 8 bytes starting at 0x7ffffe8fc8b8..
GPGPU-Sim PTX: Setting up arguments for 8 bytes starting at 0x7ffffe8fc8b0..
GPGPU-Sim PTX: Setting up arguments for 4 bytes starting at 0x7ffffe8fc8c8..

GPGPU-Sim PTX: cudaLaunch for 0x0x55ef17f8c19c (mode=performance simulation) on stream 0
GPGPU-Sim PTX: finding reconvergence points for '_Z8afforestiPKmPKiPii'...
GPGPU-Sim PTX: Finding dominators for '_Z8afforestiPKmPKiPii'...
GPGPU-Sim PTX: Finding immediate dominators for '_Z8afforestiPKmPKiPii'...
GPGPU-Sim PTX: Finding postdominators for '_Z8afforestiPKmPKiPii'...
GPGPU-Sim PTX: Finding immediate postdominators for '_Z8afforestiPKmPKiPii'...
GPGPU-Sim PTX: pre-decoding instructions for '_Z8afforestiPKmPKiPii'...
GPGPU-Sim PTX: reconvergence points for _Z8afforestiPKmPKiPii...
GPGPU-Sim PTX:  1 (potential) branch divergence @  PC=0x120 (cc_afforest.1.sm_75.ptx:82) @%p1 bra $L__BB1_9;

GPGPU-Sim PTX:    immediate post dominator      @  PC=0x288 (cc_afforest.1.sm_75.ptx:138) ret;

GPGPU-Sim PTX:  2 (potential) branch divergence @  PC=0x170 (cc_afforest.1.sm_75.ptx:93) @%p2 bra $L__BB1_9;

GPGPU-Sim PTX:    immediate post dominator      @  PC=0x288 (cc_afforest.1.sm_75.ptx:138) ret;

GPGPU-Sim PTX:  3 (potential) branch divergence @  PC=0x1d0 (cc_afforest.1.sm_75.ptx:106) @%p3 bra $L__BB1_9;

GPGPU-Sim PTX:    immediate post dominator      @  PC=0x288 (cc_afforest.1.sm_75.ptx:138) ret;

GPGPU-Sim PTX:  4 (potential) branch divergence @  PC=0x210 (cc_afforest.1.sm_75.ptx:116) @%p4 bra $L__BB1_9;

GPGPU-Sim PTX:    immediate post dominator      @  PC=0x288 (cc_afforest.1.sm_75.ptx:138) ret;

GPGPU-Sim PTX:  5 (potential) branch divergence @  PC=0x220 (cc_afforest.1.sm_75.ptx:119) @%p5 bra $L__BB1_8;

GPGPU-Sim PTX:    immediate post dominator      @  PC=0x288 (cc_afforest.1.sm_75.ptx:138) ret;

GPGPU-Sim PTX:  6 (potential) branch divergence @  PC=0x238 (cc_afforest.1.sm_75.ptx:123) @%p6 bra $L__BB1_9;

GPGPU-Sim PTX:    immediate post dominator      @  PC=0x288 (cc_afforest.1.sm_75.ptx:138) ret;

GPGPU-Sim PTX:  7 (potential) branch divergence @  PC=0x280 (cc_afforest.1.sm_75.ptx:135) @%p7 bra $L__BB1_4;

GPGPU-Sim PTX:    immediate post dominator      @  PC=0x288 (cc_afforest.1.sm_75.ptx:138) ret;

GPGPU-Sim PTX: ... end of reconvergence points for _Z8afforestiPKmPKiPii
GPGPU-Sim PTX: ... done pre-decoding instructions for '_Z8afforestiPKmPKiPii'.
GPGPU-Sim PTX: pushing kernel '_Z8afforestiPKmPKiPii' to stream 0, gridDim= (26120,1,1) blockDim = (256,1,1) 
GPGPU-Sim uArch: Shader 0 bind to kernel 1 '_Z8afforestiPKmPKiPii'
GPGPU-Sim uArch: CTA/core = 4, limited by: threads
GPGPU-Sim: Reconfigure L1 cache to 64KB
GPGPU-Sim uArch: Shader 1 bind to kernel 1 '_Z8afforestiPKmPKiPii'
GPGPU-Sim uArch: Shader 2 bind to kernel 1 '_Z8afforestiPKmPKiPii'
GPGPU-Sim uArch: Shader 3 bind to kernel 1 '_Z8afforestiPKmPKiPii'
GPGPU-Sim uArch: Shader 4 bind to kernel 1 '_Z8afforestiPKmPKiPii'
GPGPU-Sim uArch: Shader 5 bind to kernel 1 '_Z8afforestiPKmPKiPii'
GPGPU-Sim uArch: Shader 6 bind to kernel 1 '_Z8afforestiPKmPKiPii'
GPGPU-Sim uArch: Shader 7 bind to kernel 1 '_Z8afforestiPKmPKiPii'
GPGPU-Sim uArch: Shader 8 bind to kernel 1 '_Z8afforestiPKmPKiPii'
GPGPU-Sim uArch: Shader 9 bind to kernel 1 '_Z8afforestiPKmPKiPii'
GPGPU-Sim uArch: Shader 10 bind to kernel 1 '_Z8afforestiPKmPKiPii'
GPGPU-Sim uArch: Shader 11 bind to kernel 1 '_Z8afforestiPKmPKiPii'
GPGPU-Sim uArch: Shader 12 bind to kernel 1 '_Z8afforestiPKmPKiPii'
GPGPU-Sim uArch: Shader 13 bind to kernel 1 '_Z8afforestiPKmPKiPii'
GPGPU-Sim uArch: Shader 14 bind to kernel 1 '_Z8afforestiPKmPKiPii'
GPGPU-Sim uArch: Shader 15 bind to kernel 1 '_Z8afforestiPKmPKiPii'
GPGPU-Sim uArch: Shader 16 bind to kernel 1 '_Z8afforestiPKmPKiPii'
GPGPU-Sim uArch: Shader 17 bind to kernel 1 '_Z8afforestiPKmPKiPii'
GPGPU-Sim uArch: Shader 18 bind to kernel 1 '_Z8afforestiPKmPKiPii'
GPGPU-Sim uArch: Shader 19 bind to kernel 1 '_Z8afforestiPKmPKiPii'
GPGPU-Sim uArch: Shader 20 bind to kernel 1 '_Z8afforestiPKmPKiPii'
GPGPU-Sim uArch: Shader 21 bind to kernel 1 '_Z8afforestiPKmPKiPii'
GPGPU-Sim uArch: Shader 22 bind to kernel 1 '_Z8afforestiPKmPKiPii'
GPGPU-Sim uArch: Shader 23 bind to kernel 1 '_Z8afforestiPKmPKiPii'
GPGPU-Sim uArch: Shader 24 bind to kernel 1 '_Z8afforestiPKmPKiPii'
GPGPU-Sim uArch: Shader 25 bind to kernel 1 '_Z8afforestiPKmPKiPii'
GPGPU-Sim uArch: Shader 26 bind to kernel 1 '_Z8afforestiPKmPKiPii'
GPGPU-Sim uArch: Shader 27 bind to kernel 1 '_Z8afforestiPKmPKiPii'
GPGPU-Sim uArch: Shader 28 bind to kernel 1 '_Z8afforestiPKmPKiPii'
GPGPU-Sim uArch: Shader 29 bind to kernel 1 '_Z8afforestiPKmPKiPii'
Destroy streams for kernel 1: size 0
kernel_name = _Z8afforestiPKmPKiPii 
kernel_launch_uid = 1 
gpu_sim_cycle = 643080
gpu_sim_insn = 284256461
gpu_ipc =     442.0235
gpu_tot_sim_cycle = 643080
gpu_tot_sim_insn = 284256461
gpu_tot_ipc =     442.0235
gpu_tot_issued_cta = 26120
gpu_occupancy = 87.8417% 
gpu_tot_occupancy = 87.8417% 
max_total_param_size = 0
gpu_stall_dramfull = 8684
gpu_stall_icnt2sh    = 0
partiton_level_parallism =       7.3796
partiton_level_parallism_total  =       7.3796
partiton_level_parallism_util =       7.4507
partiton_level_parallism_util_total  =       7.4507
L2_BW  =     322.3412 GB/Sec
L2_BW_total  =     322.3412 GB/Sec
gpu_total_sim_rate=41479

========= Core cache stats =========
L1I_cache:
	L1I_total_cache_accesses = 0
	L1I_total_cache_misses = 0
	L1I_total_cache_pending_hits = 0
	L1I_total_cache_reservation_fails = 0
L1D_cache:
	L1D_cache_core[0]: Access = 260771, Miss = 129853, Miss_rate = 0.498, Pending_hits = 102110, Reservation_fails = 50871
	L1D_cache_core[1]: Access = 260522, Miss = 129489, Miss_rate = 0.497, Pending_hits = 102168, Reservation_fails = 51874
	L1D_cache_core[2]: Access = 262331, Miss = 130967, Miss_rate = 0.499, Pending_hits = 102459, Reservation_fails = 51224
	L1D_cache_core[3]: Access = 260323, Miss = 129700, Miss_rate = 0.498, Pending_hits = 101831, Reservation_fails = 51021
	L1D_cache_core[4]: Access = 260822, Miss = 130088, Miss_rate = 0.499, Pending_hits = 101985, Reservation_fails = 51610
	L1D_cache_core[5]: Access = 262626, Miss = 131050, Miss_rate = 0.499, Pending_hits = 102552, Reservation_fails = 51858
	L1D_cache_core[6]: Access = 262198, Miss = 130730, Miss_rate = 0.499, Pending_hits = 102591, Reservation_fails = 51691
	L1D_cache_core[7]: Access = 260720, Miss = 129966, Miss_rate = 0.498, Pending_hits = 101895, Reservation_fails = 50425
	L1D_cache_core[8]: Access = 261848, Miss = 130165, Miss_rate = 0.497, Pending_hits = 102683, Reservation_fails = 52636
	L1D_cache_core[9]: Access = 260904, Miss = 130016, Miss_rate = 0.498, Pending_hits = 102065, Reservation_fails = 51061
	L1D_cache_core[10]: Access = 261991, Miss = 130298, Miss_rate = 0.497, Pending_hits = 102730, Reservation_fails = 51264
	L1D_cache_core[11]: Access = 261946, Miss = 130417, Miss_rate = 0.498, Pending_hits = 102553, Reservation_fails = 51551
	L1D_cache_core[12]: Access = 263408, Miss = 131133, Miss_rate = 0.498, Pending_hits = 103177, Reservation_fails = 52370
	L1D_cache_core[13]: Access = 261177, Miss = 129963, Miss_rate = 0.498, Pending_hits = 102296, Reservation_fails = 51037
	L1D_cache_core[14]: Access = 261937, Miss = 130347, Miss_rate = 0.498, Pending_hits = 102614, Reservation_fails = 51333
	L1D_cache_core[15]: Access = 261233, Miss = 129955, Miss_rate = 0.497, Pending_hits = 102360, Reservation_fails = 51933
	L1D_cache_core[16]: Access = 262910, Miss = 130939, Miss_rate = 0.498, Pending_hits = 103003, Reservation_fails = 51572
	L1D_cache_core[17]: Access = 261102, Miss = 130138, Miss_rate = 0.498, Pending_hits = 102163, Reservation_fails = 51927
	L1D_cache_core[18]: Access = 262643, Miss = 130809, Miss_rate = 0.498, Pending_hits = 102831, Reservation_fails = 51921
	L1D_cache_core[19]: Access = 262062, Miss = 130414, Miss_rate = 0.498, Pending_hits = 102625, Reservation_fails = 51599
	L1D_cache_core[20]: Access = 261480, Miss = 130276, Miss_rate = 0.498, Pending_hits = 102261, Reservation_fails = 51586
	L1D_cache_core[21]: Access = 260692, Miss = 129942, Miss_rate = 0.498, Pending_hits = 101915, Reservation_fails = 51013
	L1D_cache_core[22]: Access = 261640, Miss = 130374, Miss_rate = 0.498, Pending_hits = 102336, Reservation_fails = 52234
	L1D_cache_core[23]: Access = 261928, Miss = 130634, Miss_rate = 0.499, Pending_hits = 102423, Reservation_fails = 50482
	L1D_cache_core[24]: Access = 262670, Miss = 131044, Miss_rate = 0.499, Pending_hits = 102641, Reservation_fails = 51886
	L1D_cache_core[25]: Access = 263289, Miss = 131319, Miss_rate = 0.499, Pending_hits = 103042, Reservation_fails = 52238
	L1D_cache_core[26]: Access = 260554, Miss = 129556, Miss_rate = 0.497, Pending_hits = 102093, Reservation_fails = 51587
	L1D_cache_core[27]: Access = 262144, Miss = 130636, Miss_rate = 0.498, Pending_hits = 102519, Reservation_fails = 52307
	L1D_cache_core[28]: Access = 259744, Miss = 129445, Miss_rate = 0.498, Pending_hits = 101586, Reservation_fails = 51641
	L1D_cache_core[29]: Access = 261216, Miss = 130202, Miss_rate = 0.498, Pending_hits = 102222, Reservation_fails = 51747
	L1D_total_cache_accesses = 7848831
	L1D_total_cache_misses = 3909865
	L1D_total_cache_miss_rate = 0.4981
	L1D_total_cache_pending_hits = 3071729
	L1D_total_cache_reservation_fails = 1547499
	L1D_cache_data_port_util = 0.045
	L1D_cache_fill_port_util = 0.204
L1C_cache:
	L1C_total_cache_accesses = 0
	L1C_total_cache_misses = 0
	L1C_total_cache_pending_hits = 0
	L1C_total_cache_reservation_fails = 0
L1T_cache:
	L1T_total_cache_accesses = 0
	L1T_total_cache_misses = 0
	L1T_total_cache_pending_hits = 0
	L1T_total_cache_reservation_fails = 0

Total_core_cache_stats:
	Total_core_cache_stats_breakdown[GLOBAL_ACC_R][HIT] = 867237
	Total_core_cache_stats_breakdown[GLOBAL_ACC_R][HIT_RESERVED] = 3071729
	Total_core_cache_stats_breakdown[GLOBAL_ACC_R][MISS] = 1309369
	Total_core_cache_stats_breakdown[GLOBAL_ACC_R][RESERVATION_FAIL] = 1547499
	Total_core_cache_stats_breakdown[GLOBAL_ACC_R][SECTOR_MISS] = 2600496
	Total_core_cache_stats_breakdown[GLOBAL_ACC_R][MSHR_HIT] = 3071729
	Total_core_cache_stats_breakdown[LOCAL_ACC_R][HIT] = 0
	Total_core_cache_stats_breakdown[LOCAL_ACC_R][HIT_RESERVED] = 0
	Total_core_cache_stats_breakdown[LOCAL_ACC_R][MISS] = 0
	Total_core_cache_stats_breakdown[LOCAL_ACC_R][RESERVATION_FAIL] = 0
	Total_core_cache_stats_breakdown[LOCAL_ACC_R][SECTOR_MISS] = 0
	Total_core_cache_stats_breakdown[LOCAL_ACC_R][MSHR_HIT] = 0
	Total_core_cache_stats_breakdown[CONST_ACC_R][HIT] = 0
	Total_core_cache_stats_breakdown[CONST_ACC_R][HIT_RESERVED] = 0
	Total_core_cache_stats_breakdown[CONST_ACC_R][MISS] = 0
	Total_core_cache_stats_breakdown[CONST_ACC_R][RESERVATION_FAIL] = 0
	Total_core_cache_stats_breakdown[CONST_ACC_R][SECTOR_MISS] = 0
	Total_core_cache_stats_breakdown[CONST_ACC_R][MSHR_HIT] = 0
	Total_core_cache_stats_breakdown[TEXTURE_ACC_R][HIT] = 0
	Total_core_cache_stats_breakdown[TEXTURE_ACC_R][HIT_RESERVED] = 0
	Total_core_cache_stats_breakdown[TEXTURE_ACC_R][MISS] = 0
	Total_core_cache_stats_breakdown[TEXTURE_ACC_R][RESERVATION_FAIL] = 0
	Total_core_cache_stats_breakdown[TEXTURE_ACC_R][SECTOR_MISS] = 0
	Total_core_cache_stats_breakdown[TEXTURE_ACC_R][MSHR_HIT] = 0
	Total_core_cache_stats_breakdown[GLOBAL_ACC_W][HIT] = 0
	Total_core_cache_stats_breakdown[GLOBAL_ACC_W][HIT_RESERVED] = 0
	Total_core_cache_stats_breakdown[GLOBAL_ACC_W][MISS] = 0
	Total_core_cache_stats_breakdown[GLOBAL_ACC_W][RESERVATION_FAIL] = 0
	Total_core_cache_stats_breakdown[GLOBAL_ACC_W][SECTOR_MISS] = 0
	Total_core_cache_stats_breakdown[GLOBAL_ACC_W][MSHR_HIT] = 0
	Total_core_cache_stats_breakdown[LOCAL_ACC_W][HIT] = 0
	Total_core_cache_stats_breakdown[LOCAL_ACC_W][HIT_RESERVED] = 0
	Total_core_cache_stats_breakdown[LOCAL_ACC_W][MISS] = 0
	Total_core_cache_stats_breakdown[LOCAL_ACC_W][RESERVATION_FAIL] = 0
	Total_core_cache_stats_breakdown[LOCAL_ACC_W][SECTOR_MISS] = 0
	Total_core_cache_stats_breakdown[LOCAL_ACC_W][MSHR_HIT] = 0
	Total_core_cache_stats_breakdown[L1_WRBK_ACC][HIT] = 0
	Total_core_cache_stats_breakdown[L1_WRBK_ACC][HIT_RESERVED] = 0
	Total_core_cache_stats_breakdown[L1_WRBK_ACC][MISS] = 0
	Total_core_cache_stats_breakdown[L1_WRBK_ACC][RESERVATION_FAIL] = 0
	Total_core_cache_stats_breakdown[L1_WRBK_ACC][SECTOR_MISS] = 0
	Total_core_cache_stats_breakdown[L1_WRBK_ACC][MSHR_HIT] = 0
	Total_core_cache_stats_breakdown[L2_WRBK_ACC][HIT] = 0
	Total_core_cache_stats_breakdown[L2_WRBK_ACC][HIT_RESERVED] = 0
	Total_core_cache_stats_breakdown[L2_WRBK_ACC][MISS] = 0
	Total_core_cache_stats_breakdown[L2_WRBK_ACC][RESERVATION_FAIL] = 0
	Total_core_cache_stats_breakdown[L2_WRBK_ACC][SECTOR_MISS] = 0
	Total_core_cache_stats_breakdown[L2_WRBK_ACC][MSHR_HIT] = 0
	Total_core_cache_stats_breakdown[INST_ACC_R][HIT] = 0
	Total_core_cache_stats_breakdown[INST_ACC_R][HIT_RESERVED] = 0
	Total_core_cache_stats_breakdown[INST_ACC_R][MISS] = 0
	Total_core_cache_stats_breakdown[INST_ACC_R][RESERVATION_FAIL] = 0
	Total_core_cache_stats_breakdown[INST_ACC_R][SECTOR_MISS] = 0
	Total_core_cache_stats_breakdown[INST_ACC_R][MSHR_HIT] = 0
	Total_core_cache_stats_breakdown[L1_WR_ALLOC_R][HIT] = 0
	Total_core_cache_stats_breakdown[L1_WR_ALLOC_R][HIT_RESERVED] = 0
	Total_core_cache_stats_breakdown[L1_WR_ALLOC_R][MISS] = 0
	Total_core_cache_stats_breakdown[L1_WR_ALLOC_R][RESERVATION_FAIL] = 0
	Total_core_cache_stats_breakdown[L1_WR_ALLOC_R][SECTOR_MISS] = 0
	Total_core_cache_stats_breakdown[L1_WR_ALLOC_R][MSHR_HIT] = 0
	Total_core_cache_stats_breakdown[L2_WR_ALLOC_R][HIT] = 0
	Total_core_cache_stats_breakdown[L2_WR_ALLOC_R][HIT_RESERVED] = 0
	Total_core_cache_stats_breakdown[L2_WR_ALLOC_R][MISS] = 0
	Total_core_cache_stats_breakdown[L2_WR_ALLOC_R][RESERVATION_FAIL] = 0
	Total_core_cache_stats_breakdown[L2_WR_ALLOC_R][SECTOR_MISS] = 0
	Total_core_cache_stats_breakdown[L2_WR_ALLOC_R][MSHR_HIT] = 0
	Total_core_cache_stats_breakdown[GLOBAL_ACC_R][TOTAL_ACCESS] = 7848831

Total_core_cache_fail_stats:
	Total_core_cache_fail_stats_breakdown[GLOBAL_ACC_R][MISS_QUEUE_FULL] = 1527706
	Total_core_cache_fail_stats_breakdown[GLOBAL_ACC_R][MSHR_ENRTY_FAIL] = 19793
ctas_completed 26120, Shader 0 warp_id issue ditsribution:
warp_id:
0, 1, 2, 3, 4, 5, 6, 7, 8, 9, 10, 11, 12, 13, 14, 15, 16, 17, 18, 19, 20, 21, 22, 23, 24, 25, 26, 27, 28, 29, 30, 31, 
distro:
10368, 10368, 10368, 10368, 10368, 10368, 10368, 10368, 10512, 10512, 10512, 10512, 10512, 10512, 10512, 10512, 10416, 10416, 10416, 10416, 10416, 10416, 10416, 10416, 10416, 10416, 10416, 10416, 10416, 10416, 10416, 10416, 
gpgpu_n_tot_thrd_icount = 320954720
gpgpu_n_tot_w_icount = 10029835
gpgpu_n_stall_shd_mem = 1944813
gpgpu_n_mem_read_local = 0
gpgpu_n_mem_write_local = 0
gpgpu_n_mem_read_global = 4745677
gpgpu_n_mem_write_global = 0
gpgpu_n_mem_texture = 0
gpgpu_n_mem_const = 0
gpgpu_n_load_insn  = 46027906
gpgpu_n_store_insn = 0
gpgpu_n_shmem_insn = 0
gpgpu_n_sstarr_insn = 0
gpgpu_n_tex_insn = 0
gpgpu_n_const_mem_insn = 0
gpgpu_n_param_mem_insn = 33433600
gpgpu_n_shmem_bkconflict = 0
gpgpu_n_cache_bkconflict = 0
gpgpu_n_intrawarp_mshr_merge = 0
gpgpu_n_cmem_portconflict = 0
gpgpu_stall_shd_mem[c_mem][resource_stall] = 0
gpgpu_stall_shd_mem[s_mem][bk_conf] = 0
gpgpu_stall_shd_mem[gl_mem][resource_stall] = 284533
gpgpu_stall_shd_mem[gl_mem][coal_stall] = 1660280
gpgpu_stall_shd_mem[gl_mem][data_port_stall] = 0
gpu_reg_bank_conflict_stalls = 0
Warp Occupancy Distribution:
Stall:3579894	W0_Idle:87608	W0_Scoreboard:62830943	W1:0	W2:0	W3:0	W4:0	W5:0	W6:0	W7:0	W8:0	W9:0	W10:0	W11:0	W12:0	W13:0	W14:0	W15:0	W16:0	W17:0	W18:0	W19:25	W20:25	W21:50	W22:275	W23:750	W24:2075	W25:6575	W26:16100	W27:43275	W28:107000	W29:258860	W30:572175	W31:1152625	W32:7870025
single_issue_nums: WS0:2507485	WS1:2507450	WS2:2507450	WS3:2507450	
dual_issue_nums: WS0:0	WS1:0	WS2:0	WS3:0	
traffic_breakdown_coretomem[GLOBAL_ACC_R] = 31278920 {8:3909865,}
traffic_breakdown_coretomem[GLOBAL_ATOMIC] = 33432480 {40:835812,}
traffic_breakdown_memtocore[GLOBAL_ACC_R] = 156394600 {40:3909865,}
traffic_breakdown_memtocore[GLOBAL_ATOMIC] = 33432480 {40:835812,}
maxmflatency = 2657 
max_icnt2mem_latency = 622 
maxmrqlatency = 2009 
max_icnt2sh_latency = 159 
averagemflatency = 492 
avg_icnt2mem_latency = 42 
avg_mrq_latency = 111 
avg_icnt2sh_latency = 2 
mrq_lat_table:488726 	70322 	108272 	201424 	391188 	605445 	800142 	703872 	450950 	53990 	621 	0 	0 	0 	0 	0 	0 	0 	0 	0 	0 	0 	0 	0 	0 	0 	0 	0 	0 	0 	0 	0 	
dq_lat_table:0 	0 	0 	0 	0 	0 	0 	0 	0 	0 	0 	0 	0 	0 	0 	0 	0 	0 	0 	0 	0 	0 	0 	0 	0 	0 	0 	0 	0 	0 	0 	0 	
mf_lat_table:0 	0 	0 	0 	0 	0 	0 	950060 	1709566 	2026419 	59617 	15 	0 	0 	0 	0 	0 	0 	0 	0 	0 	0 	0 	0 	0 	0 	0 	0 	0 	0 	0 	0 	
icnt2mem_lat_table:0 	508723 	207224 	83986 	27878 	3218876 	684873 	7894 	5440 	783 	0 	0 	0 	0 	0 	0 	0 	0 	0 	0 	0 	0 	0 	0 	
icnt2sh_lat_table:0 	4054052 	493488 	139107 	45422 	11662 	1890 	56 	0 	0 	0 	0 	0 	0 	0 	0 	0 	0 	0 	0 	0 	0 	0 	0 	
mf_lat_pw_table:0 	0 	0 	0 	0 	0 	0 	0 	429 	209 	0 	0 	0 	0 	0 	0 	0 	0 	0 	0 	0 	0 	0 	0 	0 	0 	0 	0 	0 	0 	0 	0 	
maximum concurrent accesses to same row:
dram[0]:        64        64        64        64        64        64        64        64        64        64        64        64        64        64        64        64 
dram[1]:        64        64        64        64        64        64        64        64        64        64        64        64        64        64        64        64 
dram[2]:        64        64        64        64        64        64        64        64        64        64        64        64        64        64        64        64 
dram[3]:        64        64        64        64        64        64        64        64        64        64        64        64        64        64        64        64 
dram[4]:        64        64        64        64        64        64        64        64        64        64        64        64        64        64        64        64 
dram[5]:        64        64        64        64        64        64        64        64        64        64        64        64        64        64        64        64 
dram[6]:        64        64        64        64        64        64        64        64        64        64        64        64        64        64        64        64 
dram[7]:        64        64        64        64        64        64        64        64        64        64        64        64        64        64        64        64 
dram[8]:        64        64        64        64        64        64        64        64        64        64        64        64        64        64        64        64 
dram[9]:        64        64        64        64        64        64        64        64        64        64        64        64        64        64        64        64 
dram[10]:        64        64        64        64        64        64        64        64        64        64        64        64        64        64        64        64 
dram[11]:        64        64        64        64        64        64        64        64        64        64        64        64        64        64        64        64 
maximum service time to same row:
dram[0]:      6075      6262      8240      8244      8425      8417      5642      5643      5649      5650      5808      5808      5980      5910      6064      6175 
dram[1]:      6311      6328      8201      8189      8423      8415      5746      5745      5753      5753      5808      5805      6030      6042      6199      6216 
dram[2]:      6286      6270      8195      8190      8398      8398      5734      5703      5741      5710      5839      5850      6008      6006      6187      6174 
dram[3]:      6189      6151      8206      8221      8403      8398      5611      5580      5618      5587      5807      5806      5998      5969      6098      6079 
dram[4]:      6074      6278      8212      8206      8407      8407      5641      5642      5648      5649      5808      5808      5972      5918      6063      6177 
dram[5]:      6253      6261      8229      8251      8394      8391      5746      5745      5753      5753      5807      5807      6030      6038      6225      6233 
dram[6]:      6254      6217      8235      8226      8383      8369      5734      5703      5741      5710      5839      5850      5994      5993      6215      6182 
dram[7]:      6193      6156      8252      8247      8398      8398      5611      5580      5618      5587      5808      5808      5997      5965      6109      6084 
dram[8]:      6089      6356      8229      8213      8395      8391      5641      5642      5648      5650      5809      5808      5972      5930      6063      6160 
dram[9]:      6538      6543      8240      8257      8408      8408      5746      5745      5754      5753      5810      5810      6030      6038      6209      6215 
dram[10]:      6539      6635      8203      8190      8401      8401      5734      5703      5742      5711      5838      5850      5995      5994      6173      6175 
dram[11]:      6180      6089      8212      8206      8433      8433      5611      5580      5619      5588      5806      5806      6007      5968      6135      6060 
average row accesses per activate:
dram[0]:  8.229441  8.499787  7.772464  7.979842  7.954295  7.940205  7.568343  8.151088  7.842758  7.706105  8.063625  8.078769  7.700114  7.953828  7.698970  7.896484 
dram[1]:  7.932096  8.505953  7.699695  7.928236  7.816705  7.696049  7.874515  8.231997  7.755948  8.077569  7.949921  8.159502  7.981290  8.104393  7.471677  7.908735 
dram[2]:  8.127029  8.515036  7.711018  8.057063  7.766718  7.816247  8.024701  8.196023  7.938286  8.230612  8.304169  8.198216  7.963932  7.994052  7.753746  7.934774 
dram[3]:  7.843008  8.256979  7.694275  7.883132  8.006779  8.094339  7.964511  7.953260  8.163017  8.065122  7.765044  8.329475  7.714340  8.170722  7.736538  7.821526 
dram[4]:  7.983737  8.457577  7.769349  8.017495  7.327319  7.806028  7.960962  8.317976  8.037833  8.232340  7.972419  8.410663  7.949112  8.041019  7.462278  7.828483 
dram[5]:  8.229663  8.348169  7.776965  7.935269  7.782155  7.944006  7.858641  7.763699  7.957397  7.954063  8.271005  8.087390  7.700000  8.088934  7.572659  7.838548 
dram[6]:  8.084207  8.478445  7.897567  7.894840  7.749236  7.901876  8.037713  7.850214  7.818813  8.164240  8.348982  8.441646  8.012381  8.206699  7.495926  7.571961 
dram[7]:  8.057429  8.232939  7.712758  7.699129  7.645810  7.955477  7.838286  8.104400  8.320183  7.950511  8.162348  7.909516  7.887490  8.081624  7.700343  7.808124 
dram[8]:  7.952550  8.049180  8.032271  8.006354  7.727933  7.545218  7.992886  8.326303  7.920579  8.059316  7.850718  8.201864  8.070999  8.079582  7.445792  7.655614 
dram[9]:  7.882100  8.197964  7.899255  7.961886  7.578435  8.165587  7.975504  8.021808  7.857586  8.137640  7.948959  8.157195  7.822067  8.268914  7.409854  8.135572 
dram[10]:  8.060995  8.397741  7.619533  8.041352  7.858535  8.175112  7.687997  8.013407  7.732293  8.139460  8.029868  8.090692  7.888279  8.330709  7.752788  7.994839 
dram[11]:  8.104200  8.299545  7.783211  7.997228  7.890497  7.957514  7.860023  7.922807  7.845469  8.029738  7.998024  8.355013  7.941571  8.220360  7.604599  8.113526 
average row locality = 3874952/486729 = 7.961210
number of total memory accesses made:
dram[0]:         0         0         0         0         0         0         0         0         0         0         0         0         0         0         0         0 
dram[1]:         0         0         0         0         0         0         0         0         0         0         0         0         0         0         0         0 
dram[2]:         0         0         0         0         0         0         0         0         0         0         0         0         0         0         0         0 
dram[3]:         0         0         0         0         0         0         0         0         0         0         0         0         0         0         0         0 
dram[4]:         0         0         0         0         0         0         0         0         0         0         0         0         0         0         0         0 
dram[5]:         0         0         0         0         0         0         0         0         0         0         0         0         0         0         0         0 
dram[6]:         0         0         0         0         0         0         0         0         0         0         0         0         0         0         0         0 
dram[7]:         0         0         0         0         0         0         0         0         0         0         0         0         0         0         0         0 
dram[8]:         0         0         0         0         0         0         0         0         0         0         0         0         0         0         0         0 
dram[9]:         0         0         0         0         0         0         0         0         0         0         0         0         0         0         0         0 
dram[10]:         0         0         0         0         0         0         0         0         0         0         0         0         0         0         0         0 
dram[11]:         0         0         0         0         0         0         0         0         0         0         0         0         0         0         0         0 
total accesses: 0
min_bank_accesses = 0!
min_chip_accesses = 0!
number of total read accesses:
dram[0]:     18944     18911     19085     19119     19123     19116     19256     19163     19188     19258     19093     19148     19114     19088     19108     19144 
dram[1]:     19020     18935     19133     19146     19146     19188     19202     19054     19151     19140     19104     19250     18981     19039     19111     19119 
dram[2]:     18954     19035     19155     19124     19138     19138     19076     19132     19135     19103     19065     19161     19023     19090     19114     19123 
dram[3]:     19062     19044     19089     19165     19014     19098     19137     19183     19071     19130     19201     19090     19103     19078     19045     19134 
dram[4]:     19056     18966     19107     19095     19238     19133     19122     19155     19119     19101     19175     19138     19084     19122     19107     19103 
dram[5]:     18962     18998     19120     19159     19082     19080     19173     19337     19107     19194     19022     19211     19105     19032     19148     19223 
dram[6]:     18994     18989     19054     19125     19203     19143     19183     19165     19219     19116     19036     19048     18994     19020     19170     19237 
dram[7]:     18992     19076     19126     19250     19095     19123     19243     19194     18972     19178     19102     19222     18982     19029     19127     19112 
dram[8]:     19042     19061     19092     19094     19157     19206     19156     19066     19182     19181     19189     19172     19051     19032     19190     19248 
dram[9]:     19056     19054     19082     19194     19173     19101     19122     19167     19188     19215     19187     19178     19067     19042     19234     19032 
dram[10]:     19018     19007     19137     19152     19103     19096     19239     19259     19243     19129     19105     19192     19055     19033     19094     19069 
dram[11]:     18994     18991     19141     19125     19109     19161     19204     19258     19196     19190     19181     19108     19047     19039     19106     19084 
total dram reads = 3670156
bank skew: 19337/18911 = 1.02
chip skew: 306119/305566 = 1.00
number of total write accesses:
dram[0]:      4280      4288      4276      4280      4260      4272      4260      4272      4248      4252      4232      4228      4272      4268      4284      4284 
dram[1]:      4288      4284      4284      4284      4272      4272      4268      4260      4244      4248      4228      4236      4272      4272      4280      4288 
dram[2]:      4284      4276      4284      4268      4284      4268      4264      4252      4240      4248      4224      4256      4280      4284      4276      4284 
dram[3]:      4284      4280      4280      4284      4268      4260      4244      4264      4236      4228      4232      4236      4280      4284      4280      4276 
dram[4]:      4284      4280      4280      4276      4264      4276      4268      4264      4256      4240      4236      4224      4268      4276      4284      4284 
dram[5]:      4276      4284      4276      4272      4264      4264      4252      4264      4260      4260      4240      4224      4276      4276      4284      4284 
dram[6]:      4284      4284      4276      4280      4276      4280      4256      4260      4252      4264      4240      4240      4276      4280      4276      4284 
dram[7]:      4284      4280      4264      4272      4268      4272      4264      4268      4252      4256      4236      4232      4272      4280      4284      4288 
dram[8]:      4280      4280      4276      4264      4268      4272      4264      4268      4252      4256      4232      4248      4280      4280      4280      4280 
dram[9]:      4268      4288      4276      4276      4276      4272      4256      4256      4244      4256      4236      4240      4268      4272      4276      4284 
dram[10]:      4280      4288      4280      4288      4248      4288      4260      4252      4248      4260      4232      4236      4272      4276      4284      4280 
dram[11]:      4288      4276      4288      4272      4268      4268      4268      4256      4244      4244      4248      4244      4276      4272      4276      4280 
total dram writes = 819184
bank skew: 4288/4224 = 1.02
chip skew: 68308/68216 = 1.00
average mf latency per bank:
dram[0]:        498       513       497       506       507       512       505       506       500       502       502       521       511       523       513       524
dram[1]:        495       523       500       518       501       531       496       516       496       529       498       535       502       543       505       542
dram[2]:        516       538       513       526       519       527       510       528       521       522       523       536       525       539       532       548
dram[3]:        522       511       516       503       509       500       515       505       513       500       520       509       521       510       524       518
dram[4]:        511       520       504       512       506       515       505       517       507       515       509       522       520       532       518       532
dram[5]:        513       552       505       535       512       535       509       533       510       532       521       544       521       559       525       559
dram[6]:        519       535       516       531       521       528       520       530       521       519       519       533       529       534       534       546
dram[7]:        521       515       514       508       516       508       523       505       520       509       531       515       538       521       539       527
dram[8]:        512       524       500       517       509       516       508       516       511       519       512       522       513       529       522       538
dram[9]:        513       553       504       532       508       546       506       545       513       548       511       549       516       553       524       556
dram[10]:        509       522       501       511       502       509       503       514       506       511       508       519       512       528       519       526
dram[11]:        535       522       521       516       538       526       528       521       537       513       538       524       540       523       546       532
maximum mf latency per bank:
dram[0]:       1386      1476      1609      2310      1855      1729      1581      1403      1515      1835      1560      1694      1625      1679      1686      1451
dram[1]:       1564      1718      1562      1395      1568      1950      1477      1515      1466      2046      1510      1639      1501      1667      1564      1596
dram[2]:       1514      1662      2156      1555      1627      1825      1453      1750      1635      1761      1423      2076      1890      1706      1754      1733
dram[3]:       1436      1606      1690      1516      1426      1781      1689      1591      1721      1719      1847      1665      1315      1584      1729      1911
dram[4]:       1400      2371      1763      2206      1710      1559      1499      1519      1878      1679      1628      1549      1630      1813      1951      1683
dram[5]:       1516      1602      1557      1565      1600      1725      1579      1594      1658      2021      1642      1787      1413      1537      1477      1678
dram[6]:       1495      1523      1708      2161      1638      1689      1608      2024      1785      1803      1595      1820      2044      1724      1818      1630
dram[7]:       1782      1802      1343      1913      1797      1792      1693      1671      1592      1521      1650      1428      1592      2028      1681      1762
dram[8]:       1650      1700      2126      1621      1493      1534      1610      1961      1916      1621      1566      1596      1515      1516      1419      1890
dram[9]:       1815      1595      1527      1673      1422      2657      1833      1947      1601      1950      1467      1671      1581      1610      1629      1696
dram[10]:       1737      1506      1540      1665      1472      1570      1635      1772      1656      1520      1554      1834      1681      1754      1540      1508
dram[11]:       1504      1712      1480      1772      1349      1854      1862      1612      2000      1515      1677      1452      1607      1634      1555      1884

Number of Memory Banks Accessed per Memory Operation per Warp (from 0):
0	0	0	0	0	0	0	0	0	0	0	0	0	0	0	0	0	0	0	0	0	0	0	0	0	0	0	0	0	0	0	0	0	0	0	0	0	0	0	0	0	0	0	0	0	0	0	0	0	0	0	0	0	0	0	0	0	0	0	0	0	0	0	0	0	0	0	0	0	0	0	0	0	0	0	0	0	0	0	0	0	0	0	0	0	0	0	0	0	0	0	0	0	0	0	0	0	0	0	0	0	0	0	0	0	0	0	0	0	0	0	0	0	0	0	0	0	0	0	0	0	0	0	0	0	0	0	0	0	0	0	0	0	0	0	0	0	0	0	0	0	0	0	0	0	0	0	0	0	0	0	0	0	0	0	0	0	0	0	0	0	0	0	0	0	0	0	0	0	0	0	0	0	0	0	0	0	0	0	0	0	0	0	0	0	0	0	0	0	0	0	0	
Average # of Memory Banks Accessed per Memory Operation per Warp=-nan

position of mrq chosen
0	0	0	0	0	0	0	0	0	0	0	0	0	0	0	0	0	0	0	0	0	0	0	0	0	0	0	0	0	0	0	0	0	0	0	0	0	0	0	0	0	0	0	0	0	0	0	0	0	0	0	0	0	0	0	0	0	0	0	0	0	0	0	0	

average position of mrq chosen = -nan
Memory Partition 0: 
Cache L2_bank_000:
MSHR contents

Cache L2_bank_001:
MSHR contents

In Dram Latency Queue (total = 0): 
DRAM[0]: 16 bks, busW=2 BL=16 CL=24, tRRD=12 tCCD=4, tRCD=24 tRAS=55 tRP=24 tRC=78
n_cmd=1649157 n_nop=1201885 n_act=40708 n_pre=40692 n_ref_event=0 n_req=322922 n_rd=305858 n_rd_L2_A=0 n_write=0 n_wr_bk=68256 bw_util=0.9074
n_activity=1627817 dram_eff=0.9193
bk0: 18944a 828974i bk1: 18911a 814551i bk2: 19085a 803217i bk3: 19119a 785819i bk4: 19123a 783294i bk5: 19116a 788016i bk6: 19256a 758666i bk7: 19163a 772793i bk8: 19188a 816303i bk9: 19258a 775112i bk10: 19093a 803202i bk11: 19148a 783962i bk12: 19114a 814643i bk13: 19088a 814039i bk14: 19108a 831020i bk15: 19144a 815464i 

------------------------------------------------------------------------

Row_Buffer_Locality = 0.873939
Row_Buffer_Locality_read = 0.894762
Row_Buffer_Locality_write = 0.500703
Bank_Level_Parallism = 8.559346
Bank_Level_Parallism_Col = 7.578934
Bank_Level_Parallism_Ready = 2.724735
write_to_read_ratio_blp_rw_average = 0.450960
GrpLevelPara = 3.716182 

BW Util details:
bwutil = 0.907407 
total_CMD = 1649157 
util_bw = 1496456 
Wasted_Col = 128053 
Wasted_Row = 1263 
Idle = 23385 

BW Util Bottlenecks: 
RCDc_limit = 77257 
RCDWRc_limit = 10534 
WTRc_limit = 223816 
RTWc_limit = 454304 
CCDLc_limit = 142614 
rwq = 0 
CCDLc_limit_alone = 78261 
WTRc_limit_alone = 207403 
RTWc_limit_alone = 406364 

Commands details: 
total_CMD = 1649157 
n_nop = 1201885 
Read = 305858 
Write = 0 
L2_Alloc = 0 
L2_WB = 68256 
n_act = 40708 
n_pre = 40692 
n_ref = 0 
n_req = 322922 
total_req = 374114 

Dual Bus Interface Util: 
issued_total_row = 81400 
issued_total_col = 374114 
Row_Bus_Util =  0.049359 
CoL_Bus_Util = 0.226852 
Either_Row_CoL_Bus_Util = 0.271213 
Issued_on_Two_Bus_Simul_Util = 0.004998 
issued_two_Eff = 0.018427 
queue_avg = 55.883049 


dram_util_bins: 0 0 0 0 0 0 0 0 0 0
dram_eff_bins: 0 0 0 0 0 0 0 0 0 0
mrqq: max=64 avg=55.883
Memory Partition 1: 
Cache L2_bank_002:
MSHR contents

Cache L2_bank_003:
MSHR contents

In Dram Latency Queue (total = 0): 
DRAM[1]: 16 bks, busW=2 BL=16 CL=24, tRRD=12 tCCD=4, tRCD=24 tRAS=55 tRP=24 tRC=78
n_cmd=1649157 n_nop=1202051 n_act=40674 n_pre=40658 n_ref_event=0 n_req=322789 n_rd=305719 n_rd_L2_A=0 n_write=0 n_wr_bk=68280 bw_util=0.9071
n_activity=1628058 dram_eff=0.9189
bk0: 19020a 828861i bk1: 18935a 826289i bk2: 19133a 785539i bk3: 19146a 779455i bk4: 19146a 804825i bk5: 19188a 766349i bk6: 19202a 785816i bk7: 19054a 798273i bk8: 19151a 808469i bk9: 19140a 777246i bk10: 19104a 818085i bk11: 19250a 787410i bk12: 18981a 822430i bk13: 19039a 809158i bk14: 19111a 809134i bk15: 19119a 827662i 

------------------------------------------------------------------------

Row_Buffer_Locality = 0.873992
Row_Buffer_Locality_read = 0.894603
Row_Buffer_Locality_write = 0.504862
Bank_Level_Parallism = 8.530026
Bank_Level_Parallism_Col = 1.000000
Bank_Level_Parallism_Ready = 2.735286
write_to_read_ratio_blp_rw_average = 0.000000
GrpLevelPara = 0.000000 

BW Util details:
bwutil = 0.907128 
total_CMD = 1649157 
util_bw = 1495996 
Wasted_Col = 128577 
Wasted_Row = 1414 
Idle = 23170 

BW Util Bottlenecks: 
RCDc_limit = 77989 
RCDWRc_limit = 10727 
WTRc_limit = 226831 
RTWc_limit = 444785 
CCDLc_limit = 142479 
rwq = 0 
CCDLc_limit_alone = 77121 
WTRc_limit_alone = 209804 
RTWc_limit_alone = 396454 

Commands details: 
total_CMD = 1649157 
n_nop = 1202051 
Read = 305719 
Write = 0 
L2_Alloc = 0 
L2_WB = 68280 
n_act = 40674 
n_pre = 40658 
n_ref = 0 
n_req = 322789 
total_req = 373999 

Dual Bus Interface Util: 
issued_total_row = 81332 
issued_total_col = 373999 
Row_Bus_Util =  0.049317 
CoL_Bus_Util = 0.226782 
Either_Row_CoL_Bus_Util = 0.271112 
Issued_on_Two_Bus_Simul_Util = 0.004987 
issued_two_Eff = 0.018396 
queue_avg = 54.950058 


dram_util_bins: 0 0 0 0 0 0 0 0 0 0
dram_eff_bins: 0 0 0 0 0 0 0 0 0 0
mrqq: max=64 avg=54.9501
Memory Partition 2: 
Cache L2_bank_004:
MSHR contents

Cache L2_bank_005:
MSHR contents

In Dram Latency Queue (total = 0): 
DRAM[2]: 16 bks, busW=2 BL=16 CL=24, tRRD=12 tCCD=4, tRCD=24 tRAS=55 tRP=24 tRC=78
n_cmd=1649157 n_nop=1202927 n_act=40192 n_pre=40176 n_ref_event=0 n_req=322634 n_rd=305566 n_rd_L2_A=0 n_write=0 n_wr_bk=68272 bw_util=0.9067
n_activity=1627841 dram_eff=0.9186
bk0: 18954a 843836i bk1: 19035a 819194i bk2: 19155a 801802i bk3: 19124a 791099i bk4: 19138a 798852i bk5: 19138a 774155i bk6: 19076a 805227i bk7: 19132a 780417i bk8: 19135a 802563i bk9: 19103a 811680i bk10: 19065a 811486i bk11: 19161a 806232i bk12: 19023a 821765i bk13: 19090a 801452i bk14: 19114a 820961i bk15: 19123a 806512i 

------------------------------------------------------------------------

Row_Buffer_Locality = 0.875425
Row_Buffer_Locality_read = 0.896032
Row_Buffer_Locality_write = 0.506503
Bank_Level_Parallism = 8.493726
Bank_Level_Parallism_Col = 7.527733
Bank_Level_Parallism_Ready = 2.713621
write_to_read_ratio_blp_rw_average = 0.450015
GrpLevelPara = 3.705723 

BW Util details:
bwutil = 0.906737 
total_CMD = 1649157 
util_bw = 1495352 
Wasted_Col = 129094 
Wasted_Row = 1281 
Idle = 23430 

BW Util Bottlenecks: 
RCDc_limit = 77558 
RCDWRc_limit = 10648 
WTRc_limit = 220323 
RTWc_limit = 453302 
CCDLc_limit = 143579 
rwq = 0 
CCDLc_limit_alone = 78526 
WTRc_limit_alone = 203002 
RTWc_limit_alone = 405570 

Commands details: 
total_CMD = 1649157 
n_nop = 1202927 
Read = 305566 
Write = 0 
L2_Alloc = 0 
L2_WB = 68272 
n_act = 40192 
n_pre = 40176 
n_ref = 0 
n_req = 322634 
total_req = 373838 

Dual Bus Interface Util: 
issued_total_row = 80368 
issued_total_col = 373838 
Row_Bus_Util =  0.048733 
CoL_Bus_Util = 0.226684 
Either_Row_CoL_Bus_Util = 0.270581 
Issued_on_Two_Bus_Simul_Util = 0.004836 
issued_two_Eff = 0.017874 
queue_avg = 55.782360 


dram_util_bins: 0 0 0 0 0 0 0 0 0 0
dram_eff_bins: 0 0 0 0 0 0 0 0 0 0
mrqq: max=64 avg=55.7824
Memory Partition 3: 
Cache L2_bank_006:
MSHR contents

Cache L2_bank_007:
MSHR contents

In Dram Latency Queue (total = 0): 
DRAM[3]: 16 bks, busW=2 BL=16 CL=24, tRRD=12 tCCD=4, tRCD=24 tRAS=55 tRP=24 tRC=78
n_cmd=1649157 n_nop=1202409 n_act=40532 n_pre=40516 n_ref_event=0 n_req=322698 n_rd=305644 n_rd_L2_A=0 n_write=0 n_wr_bk=68216 bw_util=0.9068
n_activity=1628037 dram_eff=0.9186
bk0: 19062a 811478i bk1: 19044a 811376i bk2: 19089a 796913i bk3: 19165a 783193i bk4: 19014a 805155i bk5: 19098a 778535i bk6: 19137a 787789i bk7: 19183a 773615i bk8: 19071a 821525i bk9: 19130a 785848i bk10: 19201a 802630i bk11: 19090a 799167i bk12: 19103a 818874i bk13: 19078a 816495i bk14: 19045a 823425i bk15: 19134a 806289i 

------------------------------------------------------------------------

Row_Buffer_Locality = 0.874397
Row_Buffer_Locality_read = 0.895342
Row_Buffer_Locality_write = 0.499003
Bank_Level_Parallism = 8.536665
Bank_Level_Parallism_Col = 7.559927
Bank_Level_Parallism_Ready = 2.721630
write_to_read_ratio_blp_rw_average = 0.450515
GrpLevelPara = 3.718069 

BW Util details:
bwutil = 0.906791 
total_CMD = 1649157 
util_bw = 1495440 
Wasted_Col = 129279 
Wasted_Row = 1441 
Idle = 22997 

BW Util Bottlenecks: 
RCDc_limit = 76848 
RCDWRc_limit = 10660 
WTRc_limit = 226512 
RTWc_limit = 462268 
CCDLc_limit = 143459 
rwq = 0 
CCDLc_limit_alone = 76942 
WTRc_limit_alone = 209572 
RTWc_limit_alone = 412691 

Commands details: 
total_CMD = 1649157 
n_nop = 1202409 
Read = 305644 
Write = 0 
L2_Alloc = 0 
L2_WB = 68216 
n_act = 40532 
n_pre = 40516 
n_ref = 0 
n_req = 322698 
total_req = 373860 

Dual Bus Interface Util: 
issued_total_row = 81048 
issued_total_col = 373860 
Row_Bus_Util =  0.049145 
CoL_Bus_Util = 0.226698 
Either_Row_CoL_Bus_Util = 0.270895 
Issued_on_Two_Bus_Simul_Util = 0.004948 
issued_two_Eff = 0.018265 
queue_avg = 55.171833 


dram_util_bins: 0 0 0 0 0 0 0 0 0 0
dram_eff_bins: 0 0 0 0 0 0 0 0 0 0
mrqq: max=64 avg=55.1718
Memory Partition 4: 
Cache L2_bank_008:
MSHR contents

Cache L2_bank_009:
MSHR contents

In Dram Latency Queue (total = 0): 
DRAM[4]: 16 bks, busW=2 BL=16 CL=24, tRRD=12 tCCD=4, tRCD=24 tRAS=55 tRP=24 tRC=78
n_cmd=1649157 n_nop=1202331 n_act=40554 n_pre=40538 n_ref_event=0 n_req=322886 n_rd=305821 n_rd_L2_A=0 n_write=0 n_wr_bk=68260 bw_util=0.9073
n_activity=1628073 dram_eff=0.9191
bk0: 19056a 820752i bk1: 18966a 807718i bk2: 19107a 804557i bk3: 19095a 775026i bk4: 19238a 781281i bk5: 19133a 779167i bk6: 19122a 798173i bk7: 19155a 769729i bk8: 19119a 790376i bk9: 19101a 787593i bk10: 19175a 785087i bk11: 19138a 798916i bk12: 19084a 809153i bk13: 19122a 784857i bk14: 19107a 827415i bk15: 19103a 804909i 

------------------------------------------------------------------------

Row_Buffer_Locality = 0.874402
Row_Buffer_Locality_read = 0.895161
Row_Buffer_Locality_write = 0.502373
Bank_Level_Parallism = 8.595975
Bank_Level_Parallism_Col = 7.615878
Bank_Level_Parallism_Ready = 2.747349
write_to_read_ratio_blp_rw_average = 0.452235
GrpLevelPara = 3.713112 

BW Util details:
bwutil = 0.907327 
total_CMD = 1649157 
util_bw = 1496324 
Wasted_Col = 128550 
Wasted_Row = 1365 
Idle = 22918 

BW Util Bottlenecks: 
RCDc_limit = 77936 
RCDWRc_limit = 10274 
WTRc_limit = 220258 
RTWc_limit = 463062 
CCDLc_limit = 146295 
rwq = 0 
CCDLc_limit_alone = 79225 
WTRc_limit_alone = 203533 
RTWc_limit_alone = 412717 

Commands details: 
total_CMD = 1649157 
n_nop = 1202331 
Read = 305821 
Write = 0 
L2_Alloc = 0 
L2_WB = 68260 
n_act = 40554 
n_pre = 40538 
n_ref = 0 
n_req = 322886 
total_req = 374081 

Dual Bus Interface Util: 
issued_total_row = 81092 
issued_total_col = 374081 
Row_Bus_Util =  0.049172 
CoL_Bus_Util = 0.226832 
Either_Row_CoL_Bus_Util = 0.270942 
Issued_on_Two_Bus_Simul_Util = 0.005061 
issued_two_Eff = 0.018681 
queue_avg = 56.079288 


dram_util_bins: 0 0 0 0 0 0 0 0 0 0
dram_eff_bins: 0 0 0 0 0 0 0 0 0 0
mrqq: max=64 avg=56.0793
Memory Partition 5: 
Cache L2_bank_010:
MSHR contents

Cache L2_bank_011:
MSHR contents

In Dram Latency Queue (total = 0): 
DRAM[5]: 16 bks, busW=2 BL=16 CL=24, tRRD=12 tCCD=4, tRCD=24 tRAS=55 tRP=24 tRC=78
n_cmd=1649157 n_nop=1201813 n_act=40691 n_pre=40675 n_ref_event=0 n_req=323017 n_rd=305953 n_rd_L2_A=0 n_write=0 n_wr_bk=68256 bw_util=0.9076
n_activity=1627849 dram_eff=0.9195
bk0: 18962a 828649i bk1: 18998a 797326i bk2: 19120a 806426i bk3: 19159a 791894i bk4: 19082a 798343i bk5: 19080a 773040i bk6: 19173a 797818i bk7: 19337a 765696i bk8: 19107a 803410i bk9: 19194a 782611i bk10: 19022a 800786i bk11: 19211a 794746i bk12: 19105a 829518i bk13: 19032a 785713i bk14: 19148a 808264i bk15: 19223a 802627i 

------------------------------------------------------------------------

Row_Buffer_Locality = 0.874028
Row_Buffer_Locality_read = 0.894706
Row_Buffer_Locality_write = 0.503282
Bank_Level_Parallism = 8.571199
Bank_Level_Parallism_Col = 7.585977
Bank_Level_Parallism_Ready = 2.728512
write_to_read_ratio_blp_rw_average = 0.450027
GrpLevelPara = 3.710566 

BW Util details:
bwutil = 0.907637 
total_CMD = 1649157 
util_bw = 1496836 
Wasted_Col = 128220 
Wasted_Row = 1113 
Idle = 22988 

BW Util Bottlenecks: 
RCDc_limit = 78888 
RCDWRc_limit = 10550 
WTRc_limit = 220598 
RTWc_limit = 460611 
CCDLc_limit = 144468 
rwq = 0 
CCDLc_limit_alone = 77834 
WTRc_limit_alone = 203038 
RTWc_limit_alone = 411537 

Commands details: 
total_CMD = 1649157 
n_nop = 1201813 
Read = 305953 
Write = 0 
L2_Alloc = 0 
L2_WB = 68256 
n_act = 40691 
n_pre = 40675 
n_ref = 0 
n_req = 323017 
total_req = 374209 

Dual Bus Interface Util: 
issued_total_row = 81366 
issued_total_col = 374209 
Row_Bus_Util =  0.049338 
CoL_Bus_Util = 0.226909 
Either_Row_CoL_Bus_Util = 0.271256 
Issued_on_Two_Bus_Simul_Util = 0.004991 
issued_two_Eff = 0.018400 
queue_avg = 56.347599 


dram_util_bins: 0 0 0 0 0 0 0 0 0 0
dram_eff_bins: 0 0 0 0 0 0 0 0 0 0
mrqq: max=64 avg=56.3476
Memory Partition 6: 
Cache L2_bank_012:
MSHR contents

Cache L2_bank_013:
MSHR contents

In Dram Latency Queue (total = 0): 
DRAM[6]: 16 bks, busW=2 BL=16 CL=24, tRRD=12 tCCD=4, tRCD=24 tRAS=55 tRP=24 tRC=78
n_cmd=1649157 n_nop=1202369 n_act=40413 n_pre=40397 n_ref_event=0 n_req=322773 n_rd=305696 n_rd_L2_A=0 n_write=0 n_wr_bk=68308 bw_util=0.9071
n_activity=1627665 dram_eff=0.9191
bk0: 18994a 826310i bk1: 18989a 808731i bk2: 19054a 821867i bk3: 19125a 770780i bk4: 19203a 803729i bk5: 19143a 790402i bk6: 19183a 793186i bk7: 19165a 781957i bk8: 19219a 802447i bk9: 19116a 796814i bk10: 19036a 805244i bk11: 19048a 769775i bk12: 18994a 803334i bk13: 19020a 819896i bk14: 19170a 805176i bk15: 19237a 780629i 

------------------------------------------------------------------------

Row_Buffer_Locality = 0.874794
Row_Buffer_Locality_read = 0.895530
Row_Buffer_Locality_write = 0.503601
Bank_Level_Parallism = 8.563705
Bank_Level_Parallism_Col = 7.587772
Bank_Level_Parallism_Ready = 2.713176
write_to_read_ratio_blp_rw_average = 0.453994
GrpLevelPara = 3.723880 

BW Util details:
bwutil = 0.907140 
total_CMD = 1649157 
util_bw = 1496016 
Wasted_Col = 128853 
Wasted_Row = 1075 
Idle = 23213 

BW Util Bottlenecks: 
RCDc_limit = 78014 
RCDWRc_limit = 10263 
WTRc_limit = 222947 
RTWc_limit = 466304 
CCDLc_limit = 146645 
rwq = 0 
CCDLc_limit_alone = 78545 
WTRc_limit_alone = 205978 
RTWc_limit_alone = 415173 

Commands details: 
total_CMD = 1649157 
n_nop = 1202369 
Read = 305696 
Write = 0 
L2_Alloc = 0 
L2_WB = 68308 
n_act = 40413 
n_pre = 40397 
n_ref = 0 
n_req = 322773 
total_req = 374004 

Dual Bus Interface Util: 
issued_total_row = 80810 
issued_total_col = 374004 
Row_Bus_Util =  0.049001 
CoL_Bus_Util = 0.226785 
Either_Row_CoL_Bus_Util = 0.270919 
Issued_on_Two_Bus_Simul_Util = 0.004867 
issued_two_Eff = 0.017964 
queue_avg = 55.835468 


dram_util_bins: 0 0 0 0 0 0 0 0 0 0
dram_eff_bins: 0 0 0 0 0 0 0 0 0 0
mrqq: max=64 avg=55.8355
Memory Partition 7: 
Cache L2_bank_014:
MSHR contents

Cache L2_bank_015:
MSHR contents

In Dram Latency Queue (total = 0): 
DRAM[7]: 16 bks, busW=2 BL=16 CL=24, tRRD=12 tCCD=4, tRCD=24 tRAS=55 tRP=24 tRC=78
n_cmd=1649157 n_nop=1201864 n_act=40685 n_pre=40669 n_ref_event=0 n_req=322891 n_rd=305823 n_rd_L2_A=0 n_write=0 n_wr_bk=68272 bw_util=0.9074
n_activity=1627814 dram_eff=0.9193
[...]
Row_Buffer_Locality_read = 0.875184
Row_Buffer_Locality_write = 0.309525
Bank_Level_Parallism = 4.954175
Bank_Level_Parallism_Col = 4.333897
Bank_Level_Parallism_Ready = 1.891444
write_to_read_ratio_blp_rw_average = 0.354618
GrpLevelPara = 2.603968 

BW Util details:
bwutil = 0.596542 
total_CMD = 6997762 
util_bw = 4174456 
Wasted_Col = 1452776 
Wasted_Row = 371190 
Idle = 999340 

BW Util Bottlenecks: 
RCDc_limit = 957755 
RCDWRc_limit = 196563 
WTRc_limit = 921188 
RTWc_limit = 1359493 
CCDLc_limit = 590015 
rwq = 0 
CCDLc_limit_alone = 420796 
WTRc_limit_alone = 863172 
RTWc_limit_alone = 1248290 

Commands details: 
total_CMD = 6997762 
n_nop = 5684609 
Read = 826275 
Write = 0 
L2_Alloc = 0 
L2_WB = 217339 
n_act = 144430 
n_pre = 144414 
n_ref = 0 
n_req = 886086 
total_req = 1043614 

Dual Bus Interface Util: 
issued_total_row = 288844 
issued_total_col = 1043614 
Row_Bus_Util =  0.041277 
CoL_Bus_Util = 0.149135 
Either_Row_CoL_Bus_Util = 0.187653 
Issued_on_Two_Bus_Simul_Util = 0.002759 
issued_two_Eff = 0.014701 
queue_avg = 18.215349 


dram_util_bins: 0 0 0 0 0 0 0 0 0 0
dram_eff_bins: 0 0 0 0 0 0 0 0 0 0
mrqq: max=64 avg=18.2153
Memory Partition 7: 
Cache L2_bank_014:
MSHR contents

Cache L2_bank_015:
MSHR contents

In Dram Latency Queue (total = 0): 
DRAM[7]: 16 bks, busW=2 BL=16 CL=24, tRRD=12 tCCD=4, tRCD=24 tRAS=55 tRP=24 tRC=78
n_cmd=6997762 n_nop=5681947 n_act=145544 n_pre=145528 n_ref_event=0 n_req=886858 n_rd=827127 n_rd_L2_A=0 n_write=0 n_wr_bk=217171 bw_util=0.5969
n_activity=6449069 dram_eff=0.6477
bk0: 51293a 5252992i bk1: 51525a 5218435i bk2: 51631a 5244966i bk3: 52062a 5176454i bk4: 51738a 5224059i bk5: 52056a 5160387i bk6: 52021a 5190669i bk7: 52042a 5179479i bk8: 51287a 5257394i bk9: 51679a 5213251i bk10: 51398a 5281227i bk11: 51716a 5220935i bk12: 51388a 5261469i bk13: 51529a 5239320i bk14: 51749a 5210284i bk15: 52013a 5181858i 

------------------------------------------------------------------------

Row_Buffer_Locality = 0.835888
Row_Buffer_Locality_read = 0.873804
Row_Buffer_Locality_write = 0.310844
Bank_Level_Parallism = 4.967782
Bank_Level_Parallism_Col = 4.336565
Bank_Level_Parallism_Ready = 1.893721
write_to_read_ratio_blp_rw_average = 0.352561
GrpLevelPara = 2.601796 

BW Util details:
bwutil = 0.596933 
total_CMD = 6997762 
util_bw = 4177192 
Wasted_Col = 1460541 
Wasted_Row = 367012 
Idle = 993017 

BW Util Bottlenecks: 
RCDc_limit = 971293 
RCDWRc_limit = 194182 
WTRc_limit = 926907 
RTWc_limit = 1364280 
CCDLc_limit = 588581 
rwq = 0 
CCDLc_limit_alone = 420408 
WTRc_limit_alone = 867860 
RTWc_limit_alone = 1255154 

Commands details: 
total_CMD = 6997762 
n_nop = 5681947 
Read = 827127 
Write = 0 
L2_Alloc = 0 
L2_WB = 217171 
n_act = 145544 
n_pre = 145528 
n_ref = 0 
n_req = 886858 
total_req = 1044298 

Dual Bus Interface Util: 
issued_total_row = 291072 
issued_total_col = 1044298 
Row_Bus_Util =  0.041595 
CoL_Bus_Util = 0.149233 
Either_Row_CoL_Bus_Util = 0.188034 
Issued_on_Two_Bus_Simul_Util = 0.002794 
issued_two_Eff = 0.014862 
queue_avg = 18.220392 


dram_util_bins: 0 0 0 0 0 0 0 0 0 0
dram_eff_bins: 0 0 0 0 0 0 0 0 0 0
mrqq: max=64 avg=18.2204
Memory Partition 8: 
Cache L2_bank_016:
MSHR contents

Cache L2_bank_017:
MSHR contents

In Dram Latency Queue (total = 0): 
DRAM[8]: 16 bks, busW=2 BL=16 CL=24, tRRD=12 tCCD=4, tRCD=24 tRAS=55 tRP=24 tRC=78
n_cmd=6997762 n_nop=5679609 n_act=146001 n_pre=145985 n_ref_event=0 n_req=888439 n_rd=828567 n_rd_L2_A=0 n_write=0 n_wr_bk=217543 bw_util=0.598
n_activity=6444377 dram_eff=0.6493
bk0: 51367a 5233182i bk1: 51587a 5205887i bk2: 51513a 5261806i bk3: 51834a 5183635i bk4: 51909a 5196134i bk5: 52109a 5159624i bk6: 51691a 5223397i bk7: 51559a 5242299i bk8: 51909a 5205453i bk9: 51718a 5192650i bk10: 51855a 5226660i bk11: 51780a 5233212i bk12: 51692a 5247351i bk13: 51613a 5199727i bk14: 52170a 5199663i bk15: 52261a 5164801i 

------------------------------------------------------------------------

Row_Buffer_Locality = 0.835666
Row_Buffer_Locality_read = 0.873611
Row_Buffer_Locality_write = 0.310546
Bank_Level_Parallism = 4.993765
Bank_Level_Parallism_Col = 4.357230
Bank_Level_Parallism_Ready = 1.902951
write_to_read_ratio_blp_rw_average = 0.352672
GrpLevelPara = 2.612312 

BW Util details:
bwutil = 0.597968 
total_CMD = 6997762 
util_bw = 4184440 
Wasted_Col = 1445250 
Wasted_Row = 373017 
Idle = 995055 

BW Util Bottlenecks: 
RCDc_limit = 967472 
RCDWRc_limit = 193328 
WTRc_limit = 932832 
RTWc_limit = 1359157 
CCDLc_limit = 583969 
rwq = 0 
CCDLc_limit_alone = 414138 
WTRc_limit_alone = 872198 
RTWc_limit_alone = 1249960 

Commands details: 
total_CMD = 6997762 
n_nop = 5679609 
Read = 828567 
Write = 0 
L2_Alloc = 0 
L2_WB = 217543 
n_act = 146001 
n_pre = 145985 
n_ref = 0 
n_req = 888439 
total_req = 1046110 

Dual Bus Interface Util: 
issued_total_row = 291986 
issued_total_col = 1046110 
Row_Bus_Util =  0.041726 
CoL_Bus_Util = 0.149492 
Either_Row_CoL_Bus_Util = 0.188368 
Issued_on_Two_Bus_Simul_Util = 0.002850 
issued_two_Eff = 0.015130 
queue_avg = 18.509876 


dram_util_bins: 0 0 0 0 0 0 0 0 0 0
dram_eff_bins: 0 0 0 0 0 0 0 0 0 0
mrqq: max=64 avg=18.5099
Memory Partition 9: 
Cache L2_bank_018:
MSHR contents

Cache L2_bank_019:
MSHR contents

In Dram Latency Queue (total = 0): 
DRAM[9]: 16 bks, busW=2 BL=16 CL=24, tRRD=12 tCCD=4, tRCD=24 tRAS=55 tRP=24 tRC=78
n_cmd=6997762 n_nop=5681435 n_act=145382 n_pre=145366 n_ref_event=0 n_req=888096 n_rd=828205 n_rd_L2_A=0 n_write=0 n_wr_bk=217456 bw_util=0.5977
n_activity=6436574 dram_eff=0.6498
bk0: 51852a 5183255i bk1: 51384a 5201145i bk2: 51716a 5226757i bk3: 51795a 5215840i bk4: 52125a 5164561i bk5: 51477a 5190873i bk6: 51719a 5223890i bk7: 51885a 5171611i bk8: 51715a 5249017i bk9: 51905a 5209922i bk10: 51815a 5232579i bk11: 51749a 5202764i bk12: 51697a 5246981i bk13: 51705a 5233138i bk14: 52200a 5182182i bk15: 51466a 5222675i 

------------------------------------------------------------------------

Row_Buffer_Locality = 0.836299
Row_Buffer_Locality_read = 0.874150
Row_Buffer_Locality_write = 0.312885
Bank_Level_Parallism = 5.002525
Bank_Level_Parallism_Col = 4.365115
Bank_Level_Parallism_Ready = 1.903193
write_to_read_ratio_blp_rw_average = 0.354341
GrpLevelPara = 2.614531 

BW Util details:
bwutil = 0.597712 
total_CMD = 6997762 
util_bw = 4182644 
Wasted_Col = 1447446 
Wasted_Row = 366512 
Idle = 1001160 

BW Util Bottlenecks: 
RCDc_limit = 960573 
RCDWRc_limit = 193256 
WTRc_limit = 929934 
RTWc_limit = 1379850 
CCDLc_limit = 589395 
rwq = 0 
CCDLc_limit_alone = 417955 
WTRc_limit_alone = 870773 
RTWc_limit_alone = 1267571 

Commands details: 
total_CMD = 6997762 
n_nop = 5681435 
Read = 828205 
Write = 0 
L2_Alloc = 0 
L2_WB = 217456 
n_act = 145382 
n_pre = 145366 
n_ref = 0 
n_req = 888096 
total_req = 1045661 

Dual Bus Interface Util: 
issued_total_row = 290748 
issued_total_col = 1045661 
Row_Bus_Util =  0.041549 
CoL_Bus_Util = 0.149428 
Either_Row_CoL_Bus_Util = 0.188107 
Issued_on_Two_Bus_Simul_Util = 0.002870 
issued_two_Eff = 0.015256 
queue_avg = 18.598009 


dram_util_bins: 0 0 0 0 0 0 0 0 0 0
dram_eff_bins: 0 0 0 0 0 0 0 0 0 0
mrqq: max=64 avg=18.598
Memory Partition 10: 
Cache L2_bank_020:
MSHR contents

Cache L2_bank_021:
MSHR contents

In Dram Latency Queue (total = 0): 
DRAM[10]: 16 bks, busW=2 BL=16 CL=24, tRRD=12 tCCD=4, tRCD=24 tRAS=55 tRP=24 tRC=78
n_cmd=6997762 n_nop=5678104 n_act=146473 n_pre=146457 n_ref_event=0 n_req=888893 n_rd=828858 n_rd_L2_A=0 n_write=0 n_wr_bk=217734 bw_util=0.5982
n_activity=6449615 dram_eff=0.6491
bk0: 51389a 5243333i bk1: 51441a 5199198i bk2: 51952a 5202335i bk3: 51993a 5156887i bk4: 51881a 5212649i bk5: 51886a 5155269i bk6: 52090a 5158388i bk7: 52266a 5144856i bk8: 52092a 5192072i bk9: 51644a 5205780i bk10: 51651a 5217470i bk11: 51908a 5170114i bk12: 51753a 5247574i bk13: 51487a 5236327i bk14: 51735a 5194141i bk15: 51690a 5206687i 

------------------------------------------------------------------------

Row_Buffer_Locality = 0.835219
Row_Buffer_Locality_read = 0.873256
Row_Buffer_Locality_write = 0.310069
Bank_Level_Parallism = 5.014906
Bank_Level_Parallism_Col = 4.378023
Bank_Level_Parallism_Ready = 1.906255
write_to_read_ratio_blp_rw_average = 0.353588
GrpLevelPara = 2.606519 

BW Util details:
bwutil = 0.598244 
total_CMD = 6997762 
util_bw = 4186368 
Wasted_Col = 1462479 
Wasted_Row = 370286 
Idle = 978629 

BW Util Bottlenecks: 
RCDc_limit = 974097 
RCDWRc_limit = 197197 
WTRc_limit = 938241 
RTWc_limit = 1378488 
CCDLc_limit = 597889 
rwq = 0 
CCDLc_limit_alone = 423460 
WTRc_limit_alone = 877162 
RTWc_limit_alone = 1265138 

Commands details: 
total_CMD = 6997762 
n_nop = 5678104 
Read = 828858 
Write = 0 
L2_Alloc = 0 
L2_WB = 217734 
n_act = 146473 
n_pre = 146457 
n_ref = 0 
n_req = 888893 
total_req = 1046592 

Dual Bus Interface Util: 
issued_total_row = 292930 
issued_total_col = 1046592 
Row_Bus_Util =  0.041861 
CoL_Bus_Util = 0.149561 
Either_Row_CoL_Bus_Util = 0.188583 
Issued_on_Two_Bus_Simul_Util = 0.002839 
issued_two_Eff = 0.015052 
queue_avg = 18.594830 


dram_util_bins: 0 0 0 0 0 0 0 0 0 0
dram_eff_bins: 0 0 0 0 0 0 0 0 0 0
mrqq: max=64 avg=18.5948
Memory Partition 11: 
Cache L2_bank_022:
MSHR contents

Cache L2_bank_023:
MSHR contents

In Dram Latency Queue (total = 0): 
DRAM[11]: 16 bks, busW=2 BL=16 CL=24, tRRD=12 tCCD=4, tRCD=24 tRAS=55 tRP=24 tRC=78
n_cmd=6997762 n_nop=5680003 n_act=145809 n_pre=145793 n_ref_event=0 n_req=888582 n_rd=828601 n_rd_L2_A=0 n_write=0 n_wr_bk=217534 bw_util=0.598
n_activity=6459389 dram_eff=0.6478
bk0: 51278a 5280681i bk1: 51356a 5203903i bk2: 51955a 5211753i bk3: 51728a 5214104i bk4: 51864a 5206917i bk5: 51823a 5185624i bk6: 52036a 5177641i bk7: 52510a 5123079i bk8: 51801a 5215840i bk9: 51975a 5167708i bk10: 51963a 5200881i bk11: 51653a 5231362i bk12: 51420a 5264929i bk13: 51642a 5250213i bk14: 51822a 5201519i bk15: 51775a 5194925i 

------------------------------------------------------------------------

Row_Buffer_Locality = 0.835908
Row_Buffer_Locality_read = 0.873922
Row_Buffer_Locality_write = 0.310765
Bank_Level_Parallism = 4.981941
Bank_Level_Parallism_Col = 4.354746
Bank_Level_Parallism_Ready = 1.906734
write_to_read_ratio_blp_rw_average = 0.353076
GrpLevelPara = 2.604394 

BW Util details:
bwutil = 0.597983 
total_CMD = 6997762 
util_bw = 4184540 
Wasted_Col = 1464230 
Wasted_Row = 373932 
Idle = 975060 

BW Util Bottlenecks: 
RCDc_limit = 967470 
RCDWRc_limit = 194917 
WTRc_limit = 935335 
RTWc_limit = 1369158 
CCDLc_limit = 592604 
rwq = 0 
CCDLc_limit_alone = 421860 
WTRc_limit_alone = 874263 
RTWc_limit_alone = 1259486 

Commands details: 
total_CMD = 6997762 
n_nop = 5680003 
Read = 828601 
Write = 0 
L2_Alloc = 0 
L2_WB = 217534 
n_act = 145809 
n_pre = 145793 
n_ref = 0 
n_req = 888582 
total_req = 1046135 

Dual Bus Interface Util: 
issued_total_row = 291602 
issued_total_col = 1046135 
Row_Bus_Util =  0.041671 
CoL_Bus_Util = 0.149496 
Either_Row_CoL_Bus_Util = 0.188311 
Issued_on_Two_Bus_Simul_Util = 0.002855 
issued_two_Eff = 0.015161 
queue_avg = 18.536966 


dram_util_bins: 0 0 0 0 0 0 0 0 0 0
dram_eff_bins: 0 0 0 0 0 0 0 0 0 0
mrqq: max=64 avg=18.537

========= L2 cache stats =========
L2_cache_bank[0]: Access = 809119, Miss = 414306, Miss_rate = 0.512, Pending_hits = 4677, Reservation_fails = 4133
L2_cache_bank[1]: Access = 802942, Miss = 413637, Miss_rate = 0.515, Pending_hits = 4763, Reservation_fails = 3419
L2_cache_bank[2]: Access = 808376, Miss = 413804, Miss_rate = 0.512, Pending_hits = 5234, Reservation_fails = 3048
L2_cache_bank[3]: Access = 826379, Miss = 413506, Miss_rate = 0.500, Pending_hits = 12271, Reservation_fails = 3820
L2_cache_bank[4]: Access = 732597, Miss = 412521, Miss_rate = 0.563, Pending_hits = 3800, Reservation_fails = 3198
L2_cache_bank[5]: Access = 816770, Miss = 414578, Miss_rate = 0.508, Pending_hits = 4380, Reservation_fails = 3584
L2_cache_bank[6]: Access = 829417, Miss = 413171, Miss_rate = 0.498, Pending_hits = 20862, Reservation_fails = 4949
L2_cache_bank[7]: Access = 805689, Miss = 413358, Miss_rate = 0.513, Pending_hits = 4298, Reservation_fails = 5882
L2_cache_bank[8]: Access = 812620, Miss = 413546, Miss_rate = 0.509, Pending_hits = 4463, Reservation_fails = 2421
L2_cache_bank[9]: Access = 808406, Miss = 413513, Miss_rate = 0.512, Pending_hits = 4754, Reservation_fails = 2519
L2_cache_bank[10]: Access = 812567, Miss = 413084, Miss_rate = 0.508, Pending_hits = 5458, Reservation_fails = 3183
L2_cache_bank[11]: Access = 831873, Miss = 414478, Miss_rate = 0.498, Pending_hits = 12827, Reservation_fails = 1643
L2_cache_bank[12]: Access = 732037, Miss = 413161, Miss_rate = 0.564, Pending_hits = 4023, Reservation_fails = 1553
L2_cache_bank[13]: Access = 817711, Miss = 413114, Miss_rate = 0.505, Pending_hits = 4301, Reservation_fails = 2938
L2_cache_bank[14]: Access = 827157, Miss = 412505, Miss_rate = 0.499, Pending_hits = 20863, Reservation_fails = 3942
L2_cache_bank[15]: Access = 808543, Miss = 414622, Miss_rate = 0.513, Pending_hits = 4480, Reservation_fails = 4854
L2_cache_bank[16]: Access = 805028, Miss = 414106, Miss_rate = 0.514, Pending_hits = 4567, Reservation_fails = 2804
L2_cache_bank[17]: Access = 808937, Miss = 414461, Miss_rate = 0.512, Pending_hits = 4841, Reservation_fails = 3423
L2_cache_bank[18]: Access = 813070, Miss = 414839, Miss_rate = 0.510, Pending_hits = 5459, Reservation_fails = 5859
L2_cache_bank[19]: Access = 825931, Miss = 413366, Miss_rate = 0.500, Pending_hits = 12733, Reservation_fails = 3864
L2_cache_bank[20]: Access = 736546, Miss = 414543, Miss_rate = 0.563, Pending_hits = 4188, Reservation_fails = 2219
L2_cache_bank[21]: Access = 815851, Miss = 414315, Miss_rate = 0.508, Pending_hits = 4219, Reservation_fails = 2199
L2_cache_bank[22]: Access = 822690, Miss = 414139, Miss_rate = 0.503, Pending_hits = 20860, Reservation_fails = 2139
L2_cache_bank[23]: Access = 803491, Miss = 414462, Miss_rate = 0.516, Pending_hits = 4330, Reservation_fails = 2558
L2_total_cache_accesses = 19313747
L2_total_cache_misses = 9931135
L2_total_cache_miss_rate = 0.5142
L2_total_cache_pending_hits = 182651
L2_total_cache_reservation_fails = 80151
L2_total_cache_breakdown:
	L2_cache_stats_breakdown[GLOBAL_ACC_R][HIT] = 2260336
	L2_cache_stats_breakdown[GLOBAL_ACC_R][HIT_RESERVED] = 182651
	L2_cache_stats_breakdown[GLOBAL_ACC_R][MISS] = 3069657
	L2_cache_stats_breakdown[GLOBAL_ACC_R][RESERVATION_FAIL] = 80151
	L2_cache_stats_breakdown[GLOBAL_ACC_R][SECTOR_MISS] = 6861478
	L2_cache_stats_breakdown[GLOBAL_ACC_R][MSHR_HIT] = 182651
	L2_cache_stats_breakdown[LOCAL_ACC_R][HIT] = 0
	L2_cache_stats_breakdown[LOCAL_ACC_R][HIT_RESERVED] = 0
	L2_cache_stats_breakdown[LOCAL_ACC_R][MISS] = 0
	L2_cache_stats_breakdown[LOCAL_ACC_R][RESERVATION_FAIL] = 0
	L2_cache_stats_breakdown[LOCAL_ACC_R][SECTOR_MISS] = 0
	L2_cache_stats_breakdown[LOCAL_ACC_R][MSHR_HIT] = 0
	L2_cache_stats_breakdown[CONST_ACC_R][HIT] = 0
	L2_cache_stats_breakdown[CONST_ACC_R][HIT_RESERVED] = 0
	L2_cache_stats_breakdown[CONST_ACC_R][MISS] = 0
	L2_cache_stats_breakdown[CONST_ACC_R][RESERVATION_FAIL] = 0
	L2_cache_stats_breakdown[CONST_ACC_R][SECTOR_MISS] = 0
	L2_cache_stats_breakdown[CONST_ACC_R][MSHR_HIT] = 0
	L2_cache_stats_breakdown[TEXTURE_ACC_R][HIT] = 0
	L2_cache_stats_breakdown[TEXTURE_ACC_R][HIT_RESERVED] = 0
	L2_cache_stats_breakdown[TEXTURE_ACC_R][MISS] = 0
	L2_cache_stats_breakdown[TEXTURE_ACC_R][RESERVATION_FAIL] = 0
	L2_cache_stats_breakdown[TEXTURE_ACC_R][SECTOR_MISS] = 0
	L2_cache_stats_breakdown[TEXTURE_ACC_R][MSHR_HIT] = 0
	L2_cache_stats_breakdown[GLOBAL_ACC_W][HIT] = 6939625
	L2_cache_stats_breakdown[GLOBAL_ACC_W][HIT_RESERVED] = 0
	L2_cache_stats_breakdown[GLOBAL_ACC_W][MISS] = 0
	L2_cache_stats_breakdown[GLOBAL_ACC_W][RESERVATION_FAIL] = 0
	L2_cache_stats_breakdown[GLOBAL_ACC_W][SECTOR_MISS] = 0
	L2_cache_stats_breakdown[GLOBAL_ACC_W][MSHR_HIT] = 0
	L2_cache_stats_breakdown[LOCAL_ACC_W][HIT] = 0
	L2_cache_stats_breakdown[LOCAL_ACC_W][HIT_RESERVED] = 0
	L2_cache_stats_breakdown[LOCAL_ACC_W][MISS] = 0
	L2_cache_stats_breakdown[LOCAL_ACC_W][RESERVATION_FAIL] = 0
	L2_cache_stats_breakdown[LOCAL_ACC_W][SECTOR_MISS] = 0
	L2_cache_stats_breakdown[LOCAL_ACC_W][MSHR_HIT] = 0
	L2_cache_stats_breakdown[L1_WRBK_ACC][HIT] = 0
	L2_cache_stats_breakdown[L1_WRBK_ACC][HIT_RESERVED] = 0
	L2_cache_stats_breakdown[L1_WRBK_ACC][MISS] = 0
	L2_cache_stats_breakdown[L1_WRBK_ACC][RESERVATION_FAIL] = 0
	L2_cache_stats_breakdown[L1_WRBK_ACC][SECTOR_MISS] = 0
	L2_cache_stats_breakdown[L1_WRBK_ACC][MSHR_HIT] = 0
	L2_cache_stats_breakdown[L2_WRBK_ACC][HIT] = 0
	L2_cache_stats_breakdown[L2_WRBK_ACC][HIT_RESERVED] = 0
	L2_cache_stats_breakdown[L2_WRBK_ACC][MISS] = 0
	L2_cache_stats_breakdown[L2_WRBK_ACC][RESERVATION_FAIL] = 0
	L2_cache_stats_breakdown[L2_WRBK_ACC][SECTOR_MISS] = 0
	L2_cache_stats_breakdown[L2_WRBK_ACC][MSHR_HIT] = 0
	L2_cache_stats_breakdown[INST_ACC_R][HIT] = 0
	L2_cache_stats_breakdown[INST_ACC_R][HIT_RESERVED] = 0
	L2_cache_stats_breakdown[INST_ACC_R][MISS] = 0
	L2_cache_stats_breakdown[INST_ACC_R][RESERVATION_FAIL] = 0
	L2_cache_stats_breakdown[INST_ACC_R][SECTOR_MISS] = 0
	L2_cache_stats_breakdown[INST_ACC_R][MSHR_HIT] = 0
	L2_cache_stats_breakdown[L1_WR_ALLOC_R][HIT] = 0
	L2_cache_stats_breakdown[L1_WR_ALLOC_R][HIT_RESERVED] = 0
	L2_cache_stats_breakdown[L1_WR_ALLOC_R][MISS] = 0
	L2_cache_stats_breakdown[L1_WR_ALLOC_R][RESERVATION_FAIL] = 0
	L2_cache_stats_breakdown[L1_WR_ALLOC_R][SECTOR_MISS] = 0
	L2_cache_stats_breakdown[L1_WR_ALLOC_R][MSHR_HIT] = 0
	L2_cache_stats_breakdown[L2_WR_ALLOC_R][HIT] = 0
	L2_cache_stats_breakdown[L2_WR_ALLOC_R][HIT_RESERVED] = 0
	L2_cache_stats_breakdown[L2_WR_ALLOC_R][MISS] = 0
	L2_cache_stats_breakdown[L2_WR_ALLOC_R][RESERVATION_FAIL] = 0
	L2_cache_stats_breakdown[L2_WR_ALLOC_R][SECTOR_MISS] = 0
	L2_cache_stats_breakdown[L2_WR_ALLOC_R][MSHR_HIT] = 0
	L2_cache_stats_breakdown[GLOBAL_ACC_R][TOTAL_ACCESS] = 12374122
	L2_cache_stats_breakdown[GLOBAL_ACC_W][TOTAL_ACCESS] = 6939625
L2_total_cache_reservation_fail_breakdown:
	L2_cache_stats_fail_breakdown[GLOBAL_ACC_R][MSHR_ENRTY_FAIL] = 588
	L2_cache_stats_fail_breakdown[GLOBAL_ACC_R][MSHR_MERGE_ENRTY_FAIL] = 79563
L2_cache_data_port_util = 0.140
L2_cache_fill_port_util = 0.152

icnt_total_pkts_mem_to_simt=19313747
icnt_total_pkts_simt_to_mem=19313747
LD_mem_lat_dist  0 0 0 0 0 0 0 0 0 0 0 0 0 0 0 0 0 0 0 0 0 0 0 0 0 0 0
ST_mem_lat_dist  0 0 0 0 0 0 0 0 0 0 0 0 0 0 0 0 0 0 0 0 0 0 0 0 0 0 0
----------------------------Interconnect-DETAILS--------------------------------
Req_Network_injected_packets_num = 19313747
Req_Network_cycles = 2728742
Req_Network_injected_packets_per_cycle =       7.0779 
Req_Network_conflicts_per_cycle =       3.2403
Req_Network_conflicts_per_cycle_util =       3.3258
Req_Bank_Level_Parallism =       7.2646
Req_Network_in_buffer_full_per_cycle =       0.0013
Req_Network_in_buffer_avg_util =      12.5412
Req_Network_out_buffer_full_per_cycle =       0.0000
Req_Network_out_buffer_avg_util =       0.3143

Reply_Network_injected_packets_num = 19313747
Reply_Network_cycles = 2728742
Reply_Network_injected_packets_per_cycle =        7.0779
Reply_Network_conflicts_per_cycle =        5.0366
Reply_Network_conflicts_per_cycle_util =       5.1578
Reply_Bank_Level_Parallism =       7.2482
Reply_Network_in_buffer_full_per_cycle =       0.0000
Reply_Network_in_buffer_avg_util =       1.5481
Reply_Network_out_buffer_full_per_cycle =       0.0000
Reply_Network_out_buffer_avg_util =       0.2359
----------------------------END-of-Interconnect-DETAILS-------------------------


gpgpu_simulation_time = 0 days, 8 hrs, 3 min, 11 sec (28991 sec)
gpgpu_simulation_rate = 42583 (inst/sec)
gpgpu_simulation_rate = 94 (cycle/sec)
gpgpu_silicon_slowdown = 14521276x
GPGPU-Sim: synchronize waiting for inactive GPU simulation
GPGPU-Sim API: Stream Manager State
GPGPU-Sim: detected inactive GPU simulation thread
	runtime [cuda_afforest] = 28937458.536000 ms.
Verifying...
	runtime [serial] = 725.487000 ms.
Wrong
GPGPU-Sim: *** exit detected ***
