

        *** GPGPU-Sim Simulator Version 4.2.0  [build gpgpu-sim_git-commit-5e9d31b8132651796656877ecb58fde27177ba7a_modified_315.0] ***


GPGPU-Sim PTX: simulation mode 0 (can change with PTX_SIM_MODE_FUNC environment variable:
               1=functional simulation only, 0=detailed performance simulator)
GPGPU-Sim PTX: overriding embedded ptx with ptx file (PTX_SIM_USE_PTX_FILE is set)
GPGPU-Sim: Configuration options:

-save_embedded_ptx                      0 # saves ptx files embedded in binary as <n>.ptx
-keep                                   0 # keep intermediate files created by GPGPU-Sim when interfacing with external programs
-gpgpu_ptx_save_converted_ptxplus                    0 # Saved converted ptxplus to a file
-gpgpu_occupancy_sm_number                   75 # The SM number to pass to ptxas when getting register usage for computing GPU occupancy. This parameter is required in the config.
-ptx_opcode_latency_int           4,4,4,4,21 # Opcode latencies for integers <ADD,MAX,MUL,MAD,DIV,SHFL>Default 1,1,19,25,145,32
-ptx_opcode_latency_fp           4,4,4,4,39 # Opcode latencies for single precision floating points <ADD,MAX,MUL,MAD,DIV>Default 1,1,1,1,30
-ptx_opcode_latency_dp      64,64,64,64,330 # Opcode latencies for double precision floating points <ADD,MAX,MUL,MAD,DIV>Default 8,8,8,8,335
-ptx_opcode_latency_sfu                   21 # Opcode latencies for SFU instructionsDefault 8
-ptx_opcode_latency_tesnor                   64 # Opcode latencies for Tensor instructionsDefault 64
-ptx_opcode_initiation_int            2,2,2,2,2 # Opcode initiation intervals for integers <ADD,MAX,MUL,MAD,DIV,SHFL>Default 1,1,4,4,32,4
-ptx_opcode_initiation_fp            2,2,2,2,4 # Opcode initiation intervals for single precision floating points <ADD,MAX,MUL,MAD,DIV>Default 1,1,1,1,5
-ptx_opcode_initiation_dp      64,64,64,64,130 # Opcode initiation intervals for double precision floating points <ADD,MAX,MUL,MAD,DIV>Default 8,8,8,8,130
-ptx_opcode_initiation_sfu                    8 # Opcode initiation intervals for sfu instructionsDefault 8
-ptx_opcode_initiation_tensor                   64 # Opcode initiation intervals for tensor instructionsDefault 64
-cdp_latency         7200,8000,100,12000,1600 # CDP API latency <cudaStreamCreateWithFlags, cudaGetParameterBufferV2_init_perWarp, cudaGetParameterBufferV2_perKernel, cudaLaunchDeviceV2_init_perWarp, cudaLaunchDevicV2_perKernel>Default 7200,8000,100,12000,1600
-network_mode                           2 # Interconnection network mode
-inter_config_file                   mesh # Interconnection network config file
-icnt_in_buffer_limit                  512 # in_buffer_limit
-icnt_out_buffer_limit                  512 # out_buffer_limit
-icnt_subnets                           2 # subnets
-icnt_arbiter_algo                      1 # arbiter_algo
-icnt_verbose                           0 # inct_verbose
-icnt_grant_cycles                      1 # grant_cycles
-gpgpu_ptx_use_cuobjdump                    1 # Use cuobjdump to extract ptx and sass from binaries
-gpgpu_experimental_lib_support                    0 # Try to extract code from cuda libraries [Broken because of unknown cudaGetExportTable]
-checkpoint_option                      0 #  checkpointing flag (0 = no checkpoint)
-checkpoint_kernel                      1 #  checkpointing during execution of which kernel (1- 1st kernel)
-checkpoint_CTA                         0 #  checkpointing after # of CTA (< less than total CTA)
-resume_option                          0 #  resume flag (0 = no resume)
-resume_kernel                          0 #  Resume from which kernel (1= 1st kernel)
-resume_CTA                             0 #  resume from which CTA 
-checkpoint_CTA_t                       0 #  resume from which CTA 
-checkpoint_insn_Y                      0 #  resume from which CTA 
-gpgpu_ptx_convert_to_ptxplus                    0 # Convert SASS (native ISA) to ptxplus and run ptxplus
-gpgpu_ptx_force_max_capability                   75 # Force maximum compute capability
-gpgpu_ptx_inst_debug_to_file                    0 # Dump executed instructions' debug information to file
-gpgpu_ptx_inst_debug_file       inst_debug.txt # Executed instructions' debug output file
-gpgpu_ptx_inst_debug_thread_uid                    1 # Thread UID for executed instructions' debug output
-gpgpu_simd_model                       1 # 1 = post-dominator
-gpgpu_shader_core_pipeline              1024:32 # shader core pipeline config, i.e., {<nthread>:<warpsize>}
-gpgpu_tex_cache:l1  N:4:128:256,L:R:m:N:L,T:512:8,128:2 # per-shader L1 texture cache  (READ-ONLY) config  {<nsets>:<bsize>:<assoc>,<rep>:<wr>:<alloc>:<wr_alloc>,<mshr>:<N>:<merge>,<mq>:<rf>}
-gpgpu_const_cache:l1 N:128:64:8,L:R:f:N:L,S:2:64,4 # per-shader L1 constant memory cache  (READ-ONLY) config  {<nsets>:<bsize>:<assoc>,<rep>:<wr>:<alloc>:<wr_alloc>,<mshr>:<N>:<merge>,<mq>} 
-gpgpu_cache:il1     N:64:128:16,L:R:f:N:L,S:2:48,4 # shader L1 instruction cache config  {<nsets>:<bsize>:<assoc>,<rep>:<wr>:<alloc>:<wr_alloc>,<mshr>:<N>:<merge>,<mq>} 
-gpgpu_cache:dl1     S:4:128:64,L:T:m:L:L,A:256:32,16:0,32 # per-shader L1 data cache config  {<nsets>:<bsize>:<assoc>,<rep>:<wr>:<alloc>:<wr_alloc>,<mshr>:<N>:<merge>,<mq> | none}
-gpgpu_l1_cache_write_ratio                   25 # L1D write ratio
-gpgpu_l1_banks                         4 # The number of L1 cache banks
-gpgpu_l1_banks_byte_interleaving                   32 # l1 banks byte interleaving granularity
-gpgpu_l1_banks_hashing_function                    0 # l1 banks hashing function
-gpgpu_l1_latency                      32 # L1 Hit Latency
-gpgpu_smem_latency                    30 # smem Latency
-gpgpu_cache:dl1PrefL1                 none # per-shader L1 data cache config  {<nsets>:<bsize>:<assoc>,<rep>:<wr>:<alloc>:<wr_alloc>,<mshr>:<N>:<merge>,<mq> | none}
-gpgpu_cache:dl1PrefShared                 none # per-shader L1 data cache config  {<nsets>:<bsize>:<assoc>,<rep>:<wr>:<alloc>:<wr_alloc>,<mshr>:<N>:<merge>,<mq> | none}
-gpgpu_gmem_skip_L1D                    0 # global memory access skip L1D cache (implements -Xptxas -dlcm=cg, default=no skip)
-gpgpu_perfect_mem                      0 # enable perfect memory mode (no cache miss)
-n_regfile_gating_group                    4 # group of lanes that should be read/written together)
-gpgpu_clock_gated_reg_file                    0 # enable clock gated reg file for power calculations
-gpgpu_clock_gated_lanes                    0 # enable clock gated lanes for power calculations
-gpgpu_shader_registers                65536 # Number of registers per shader core. Limits number of concurrent CTAs. (default 8192)
-gpgpu_registers_per_block                65536 # Maximum number of registers per CTA. (default 8192)
-gpgpu_ignore_resources_limitation                    0 # gpgpu_ignore_resources_limitation (default 0)
-gpgpu_shader_cta                      16 # Maximum number of concurrent CTAs in shader (default 32)
-gpgpu_num_cta_barriers                   16 # Maximum number of named barriers per CTA (default 16)
-gpgpu_n_clusters                      30 # number of processing clusters
-gpgpu_n_cores_per_cluster                    1 # number of simd cores per cluster
-gpgpu_n_cluster_ejection_buffer_size                   32 # number of packets in ejection buffer
-gpgpu_n_ldst_response_buffer_size                    2 # number of response packets in ld/st unit ejection buffer
-gpgpu_shmem_per_block                49152 # Size of shared memory per thread block or CTA (default 48kB)
-gpgpu_shmem_size                   65536 # Size of shared memory per shader core (default 16kB)
-gpgpu_shmem_option                 32,64 # Option list of shared memory sizes
-gpgpu_unified_l1d_size                   96 # Size of unified data cache(L1D + shared memory) in KB
-gpgpu_adaptive_cache_config                    1 # adaptive_cache_config
-gpgpu_shmem_sizeDefault                65536 # Size of shared memory per shader core (default 16kB)
-gpgpu_shmem_size_PrefL1                16384 # Size of shared memory per shader core (default 16kB)
-gpgpu_shmem_size_PrefShared                16384 # Size of shared memory per shader core (default 16kB)
-gpgpu_shmem_num_banks                   32 # Number of banks in the shared memory in each shader core (default 16)
-gpgpu_shmem_limited_broadcast                    0 # Limit shared memory to do one broadcast per cycle (default on)
-gpgpu_shmem_warp_parts                    1 # Number of portions a warp is divided into for shared memory bank conflict check 
-gpgpu_mem_unit_ports                    1 # The number of memory transactions allowed per core cycle
-gpgpu_shmem_warp_parts                    1 # Number of portions a warp is divided into for shared memory bank conflict check 
-gpgpu_warpdistro_shader                   -1 # Specify which shader core to collect the warp size distribution from
-gpgpu_warp_issue_shader                    0 # Specify which shader core to collect the warp issue distribution from
-gpgpu_local_mem_map                    1 # Mapping from local memory space address to simulated GPU physical address space (default = enabled)
-gpgpu_num_reg_banks                    8 # Number of register banks (default = 8)
-gpgpu_reg_bank_use_warp_id                    0 # Use warp ID in mapping registers to banks (default = off)
-gpgpu_sub_core_model                    1 # Sub Core Volta/Pascal model (default = off)
-gpgpu_enable_specialized_operand_collector                    0 # enable_specialized_operand_collector
-gpgpu_operand_collector_num_units_sp                    4 # number of collector units (default = 4)
-gpgpu_operand_collector_num_units_dp                    0 # number of collector units (default = 0)
-gpgpu_operand_collector_num_units_sfu                    4 # number of collector units (default = 4)
-gpgpu_operand_collector_num_units_int                    0 # number of collector units (default = 0)
-gpgpu_operand_collector_num_units_tensor_core                    4 # number of collector units (default = 4)
-gpgpu_operand_collector_num_units_mem                    2 # number of collector units (default = 2)
-gpgpu_operand_collector_num_units_gen                    8 # number of collector units (default = 0)
-gpgpu_operand_collector_num_in_ports_sp                    1 # number of collector unit in ports (default = 1)
-gpgpu_operand_collector_num_in_ports_dp                    0 # number of collector unit in ports (default = 0)
-gpgpu_operand_collector_num_in_ports_sfu                    1 # number of collector unit in ports (default = 1)
-gpgpu_operand_collector_num_in_ports_int                    0 # number of collector unit in ports (default = 0)
-gpgpu_operand_collector_num_in_ports_tensor_core                    1 # number of collector unit in ports (default = 1)
-gpgpu_operand_collector_num_in_ports_mem                    1 # number of collector unit in ports (default = 1)
-gpgpu_operand_collector_num_in_ports_gen                    8 # number of collector unit in ports (default = 0)
-gpgpu_operand_collector_num_out_ports_sp                    1 # number of collector unit in ports (default = 1)
-gpgpu_operand_collector_num_out_ports_dp                    0 # number of collector unit in ports (default = 0)
-gpgpu_operand_collector_num_out_ports_sfu                    1 # number of collector unit in ports (default = 1)
-gpgpu_operand_collector_num_out_ports_int                    0 # number of collector unit in ports (default = 0)
-gpgpu_operand_collector_num_out_ports_tensor_core                    1 # number of collector unit in ports (default = 1)
-gpgpu_operand_collector_num_out_ports_mem                    1 # number of collector unit in ports (default = 1)
-gpgpu_operand_collector_num_out_ports_gen                    8 # number of collector unit in ports (default = 0)
-gpgpu_coalesce_arch                   75 # Coalescing arch (GT200 = 13, Fermi = 20)
-gpgpu_num_sched_per_core                    4 # Number of warp schedulers per core
-gpgpu_max_insn_issue_per_warp                    1 # Max number of instructions that can be issued per warp in one cycle by scheduler (either 1 or 2)
-gpgpu_dual_issue_diff_exec_units                    1 # should dual issue use two different execution unit resources (Default = 1)
-gpgpu_simt_core_sim_order                    1 # Select the simulation order of cores in a cluster (0=Fix, 1=Round-Robin)
-gpgpu_pipeline_widths 4,4,4,4,4,4,4,4,4,4,8,4,4 # Pipeline widths ID_OC_SP,ID_OC_DP,ID_OC_INT,ID_OC_SFU,ID_OC_MEM,OC_EX_SP,OC_EX_DP,OC_EX_INT,OC_EX_SFU,OC_EX_MEM,EX_WB,ID_OC_TENSOR_CORE,OC_EX_TENSOR_CORE
-gpgpu_tensor_core_avail                    1 # Tensor Core Available (default=0)
-gpgpu_num_sp_units                     4 # Number of SP units (default=1)
-gpgpu_num_dp_units                     4 # Number of DP units (default=0)
-gpgpu_num_int_units                    4 # Number of INT units (default=0)
-gpgpu_num_sfu_units                    4 # Number of SF units (default=1)
-gpgpu_num_tensor_core_units                    4 # Number of tensor_core units (default=1)
-gpgpu_num_mem_units                    1 # Number if ldst units (default=1) WARNING: not hooked up to anything
-gpgpu_scheduler                      lrr # Scheduler configuration: < lrr | gto | two_level_active > If two_level_active:<num_active_warps>:<inner_prioritization>:<outer_prioritization>For complete list of prioritization values see shader.h enum scheduler_prioritization_typeDefault: gto
-gpgpu_concurrent_kernel_sm                    0 # Support concurrent kernels on a SM (default = disabled)
-gpgpu_perfect_inst_const_cache                    1 # perfect inst and const cache mode, so all inst and const hits in the cache(default = disabled)
-gpgpu_inst_fetch_throughput                    4 # the number of fetched intruction per warp each cycle
-gpgpu_reg_file_port_throughput                    2 # the number ports of the register file
-specialized_unit_1         0,4,4,4,4,BRA # specialized unit config {<enabled>,<num_units>:<latency>:<initiation>,<ID_OC_SPEC>:<OC_EX_SPEC>,<NAME>}
-specialized_unit_2         0,4,4,4,4,BRA # specialized unit config {<enabled>,<num_units>:<latency>:<initiation>,<ID_OC_SPEC>:<OC_EX_SPEC>,<NAME>}
-specialized_unit_3         0,4,4,4,4,BRA # specialized unit config {<enabled>,<num_units>:<latency>:<initiation>,<ID_OC_SPEC>:<OC_EX_SPEC>,<NAME>}
-specialized_unit_4         0,4,4,4,4,BRA # specialized unit config {<enabled>,<num_units>:<latency>:<initiation>,<ID_OC_SPEC>:<OC_EX_SPEC>,<NAME>}
-specialized_unit_5         0,4,4,4,4,BRA # specialized unit config {<enabled>,<num_units>:<latency>:<initiation>,<ID_OC_SPEC>:<OC_EX_SPEC>,<NAME>}
-specialized_unit_6         0,4,4,4,4,BRA # specialized unit config {<enabled>,<num_units>:<latency>:<initiation>,<ID_OC_SPEC>:<OC_EX_SPEC>,<NAME>}
-specialized_unit_7         0,4,4,4,4,BRA # specialized unit config {<enabled>,<num_units>:<latency>:<initiation>,<ID_OC_SPEC>:<OC_EX_SPEC>,<NAME>}
-specialized_unit_8         0,4,4,4,4,BRA # specialized unit config {<enabled>,<num_units>:<latency>:<initiation>,<ID_OC_SPEC>:<OC_EX_SPEC>,<NAME>}
-gpgpu_perf_sim_memcpy                    1 # Fill the L2 cache on memcpy
-gpgpu_simple_dram_model                    0 # simple_dram_model with fixed latency and BW
-gpgpu_dram_scheduler                    1 # 0 = fifo, 1 = FR-FCFS (defaul)
-gpgpu_dram_partition_queues          64:64:64:64 # i2$:$2d:d2$:$2i
-l2_ideal                               0 # Use a ideal L2 cache that always hit
-gpgpu_cache:dl2     S:64:128:16,L:B:m:L:P,A:192:4,32:0,32 # unified banked L2 data cache config  {<nsets>:<bsize>:<assoc>,<rep>:<wr>:<alloc>:<wr_alloc>,<mshr>:<N>:<merge>,<mq>}
-gpgpu_cache:dl2_texture_only                    0 # L2 cache used for texture only
-gpgpu_n_mem                           12 # number of memory modules (e.g. memory controllers) in gpu
-gpgpu_n_sub_partition_per_mchannel                    2 # number of memory subpartition in each memory module
-gpgpu_n_mem_per_ctrlr                    1 # number of memory chips per memory controller
-gpgpu_memlatency_stat                   14 # track and display latency statistics 0x2 enables MC, 0x4 enables queue logs
-gpgpu_frfcfs_dram_sched_queue_size                   64 # 0 = unlimited (default); # entries per chip
-gpgpu_dram_return_queue_size                  192 # 0 = unlimited (default); # entries per chip
-gpgpu_dram_buswidth                    2 # default = 4 bytes (8 bytes per cycle at DDR)
-gpgpu_dram_burst_length                   16 # Burst length of each DRAM request (default = 4 data bus cycle)
-dram_data_command_freq_ratio                    4 # Frequency ratio between DRAM data bus and command bus (default = 2 times, i.e. DDR)
-gpgpu_dram_timing_opt nbk=16:CCD=4:RRD=12:RCD=24:RAS=55:RP=24:RC=78:CL=24:WL=8:CDLR=10:WR=24:nbkgrp=4:CCDL=6:RTPL=4 # DRAM timing parameters = {nbk:tCCD:tRRD:tRCD:tRAS:tRP:tRC:CL:WL:tCDLR:tWR:nbkgrp:tCCDL:tRTPL}
-gpgpu_l2_rop_latency                  194 # ROP queue latency (default 85)
-dram_latency                          96 # DRAM latency (default 30)
-dram_dual_bus_interface                    0 # dual_bus_interface (default = 0) 
-dram_bnk_indexing_policy                    0 # dram_bnk_indexing_policy (0 = normal indexing, 1 = Xoring with the higher bits) (Default = 0)
-dram_bnkgrp_indexing_policy                    1 # dram_bnkgrp_indexing_policy (0 = take higher bits, 1 = take lower bits) (Default = 0)
-dram_seperate_write_queue_enable                    0 # Seperate_Write_Queue_Enable
-dram_write_queue_size             32:28:16 # Write_Queue_Size
-dram_elimnate_rw_turnaround                    0 # elimnate_rw_turnaround i.e set tWTR and tRTW = 0
-icnt_flit_size                        40 # icnt_flit_size
-icnt_flit_size                        40 # icnt_flit_size
-mem_profiler                           0 # memory access runtime profiling (0 = not enabled)
-gpgpu_mem_addr_mapping dramid@8;00000000.00000000.00000000.00000000.0000RRRR.RRRRRRRR.RBBBCCCC.BCCSSSSS # mapping memory address to dram model {dramid@<start bit>;<memory address map>}
-gpgpu_mem_addr_test                    0 # run sweep test to check address mapping for aliased address
-gpgpu_mem_address_mask                    1 # 0 = old addressing mask, 1 = new addressing mask, 2 = new add. mask + flipped bank sel and chip sel bits
-gpgpu_memory_partition_indexing                    0 # 0 = no indexing, 1 = bitwise xoring, 2 = IPoly, 3 = custom indexing
-accelwattch_xml_file accelwattch_sass_sim.xml # AccelWattch XML file
-power_simulation_enabled                    1 # Turn on power simulator (1=On, 0=Off)
-power_per_cycle_dump                    1 # Dump detailed power output each cycle
-hw_perf_file_name            hw_perf.csv # Hardware Performance Statistics file
-hw_perf_bench_name    hw_perf_bench_name # Kernel Name in Hardware Performance Statistics file
-power_simulation_mode                    0 # Switch performance counter input for power simulation (0=Sim, 1=HW, 2=HW-Sim Hybrid)
-dvfs_enabled                           1 # Turn on DVFS for power model
-aggregate_power_stats                    0 # Accumulate power across all kernels
-accelwattch_hybrid_perfsim_L1_RH                    0 # Get L1 Read Hits for Accelwattch-Hybrid from Accel-Sim
-accelwattch_hybrid_perfsim_L1_RM                    0 # Get L1 Read Misses for Accelwattch-Hybrid from Accel-Sim
-accelwattch_hybrid_perfsim_L1_WH                    0 # Get L1 Write Hits for Accelwattch-Hybrid from Accel-Sim
-accelwattch_hybrid_perfsim_L1_WM                    0 # Get L1 Write Misses for Accelwattch-Hybrid from Accel-Sim
-accelwattch_hybrid_perfsim_L2_RH                    0 # Get L2 Read Hits for Accelwattch-Hybrid from Accel-Sim
-accelwattch_hybrid_perfsim_L2_RM                    0 # Get L2 Read Misses for Accelwattch-Hybrid from Accel-Sim
-accelwattch_hybrid_perfsim_L2_WH                    0 # Get L2 Write Hits for Accelwattch-Hybrid from Accel-Sim
-accelwattch_hybrid_perfsim_L2_WM                    0 # Get L2 Write Misses for Accelwattch-Hybrid from Accel-Sim
-accelwattch_hybrid_perfsim_CC_ACC                    0 # Get Constant Cache Acesses for Accelwattch-Hybrid from Accel-Sim
-accelwattch_hybrid_perfsim_SHARED_ACC                    0 # Get Shared Memory Acesses for Accelwattch-Hybrid from Accel-Sim
-accelwattch_hybrid_perfsim_DRAM_RD                    0 # Get DRAM Reads for Accelwattch-Hybrid from Accel-Sim
-accelwattch_hybrid_perfsim_DRAM_WR                    0 # Get DRAM Writes for Accelwattch-Hybrid from Accel-Sim
-accelwattch_hybrid_perfsim_NOC                    0 # Get Interconnect Acesses for Accelwattch-Hybrid from Accel-Sim
-accelwattch_hybrid_perfsim_PIPE_DUTY                    0 # Get Pipeline Duty Cycle Acesses for Accelwattch-Hybrid from Accel-Sim
-accelwattch_hybrid_perfsim_NUM_SM_IDLE                    0 # Get Number of Idle SMs for Accelwattch-Hybrid from Accel-Sim
-accelwattch_hybrid_perfsim_CYCLES                    0 # Get Executed Cycles for Accelwattch-Hybrid from Accel-Sim
-accelwattch_hybrid_perfsim_VOLTAGE                    0 # Get Chip Voltage for Accelwattch-Hybrid from Accel-Sim
-power_trace_enabled                    0 # produce a file for the power trace (1=On, 0=Off)
-power_trace_zlevel                     0 # Compression level of the power trace output log (0=no comp, 9=highest)
-steady_power_levels_enabled                    0 # produce a file for the steady power levels (1=On, 0=Off)
-steady_state_definition                  8:4 # allowed deviation:number of samples
-gpgpu_max_cycle                        0 # terminates gpu simulation early (0 = no limit)
-gpgpu_max_insn                         0 # terminates gpu simulation early (0 = no limit)
-gpgpu_max_cta                          0 # terminates gpu simulation early (0 = no limit)
-gpgpu_max_completed_cta                    0 # terminates gpu simulation early (0 = no limit)
-gpgpu_runtime_stat                  1000 # display runtime statistics such as dram utilization {<freq>:<flag>}
-liveness_message_freq                    1 # Minimum number of seconds between simulation liveness messages (0 = always print)
-gpgpu_compute_capability_major                    7 # Major compute capability version number
-gpgpu_compute_capability_minor                    5 # Minor compute capability version number
-gpgpu_flush_l1_cache                    1 # Flush L1 cache at the end of each kernel call
-gpgpu_flush_l2_cache                    0 # Flush L2 cache at the end of each kernel call
-gpgpu_deadlock_detect                    1 # Stop the simulation at deadlock (1=on (default), 0=off)
-gpgpu_ptx_instruction_classification                    0 # if enabled will classify ptx instruction types per kernel (Max 255 kernels now)
-gpgpu_ptx_sim_mode                     0 # Select between Performance (default) or Functional simulation (1)
-gpgpu_clock_domains 1365:1365:1365:3500.5 # Clock Domain Frequencies in MhZ {<Core Clock>:<ICNT Clock>:<L2 Clock>:<DRAM Clock>}
-gpgpu_max_concurrent_kernel                  128 # maximum kernels that can run concurrently on GPU, set this value according to max resident grids for your compute capability
-gpgpu_cflog_interval                    0 # Interval between each snapshot in control flow logger
-visualizer_enabled                     0 # Turn on visualizer output (1=On, 0=Off)
-visualizer_outputfile                 NULL # Specifies the output log file for visualizer
-visualizer_zlevel                      6 # Compression level of the visualizer output log (0=no comp, 9=highest)
-gpgpu_stack_size_limit                 1024 # GPU thread stack size
-gpgpu_heap_size_limit              8388608 # GPU malloc heap size 
-gpgpu_runtime_sync_depth_limit                    2 # GPU device runtime synchronize depth
-gpgpu_runtime_pending_launch_count_limit                 2048 # GPU device runtime pending launch count
-trace_enabled                          0 # Turn on traces
-trace_components                    none # comma seperated list of traces to enable. Complete list found in trace_streams.tup. Default none
-trace_sampling_core                    0 # The core which is printed using CORE_DPRINTF. Default 0
-trace_sampling_memory_partition                   -1 # The memory partition which is printed using MEMPART_DPRINTF. Default -1 (i.e. all)
-enable_ptx_file_line_stats                    1 # Turn on PTX source line statistic profiling. (1 = On)
-ptx_line_stats_filename gpgpu_inst_stats.txt # Output file for PTX source line statistics.
-gpgpu_kernel_launch_latency                 5000 # Kernel launch latency in cycles. Default: 0
-gpgpu_cdp_enabled                      0 # Turn on CDP
-gpgpu_TB_launch_latency                    0 # thread block launch latency in cycles. Default: 0
-mem_runtime_stat                     100 # memory access runtime profiling samplinga51667d8e15abdb1f03be3ee4c9e19ba  /home/pars/Documents/sim_9/cc_warp
Extracting PTX file and ptxas options    1: cc_warp.1.sm_75.ptx -arch=sm_75
 freq
-L1D_metrics                            0 # memory access runtime profiling for L1 data cache
-IPC_per_prof_interval                    0 # IPC per profiling interval
-instruction_monitor                    0 # Instruction monitor
-noncoal_metrics                        0 # memory access runtime profiling for shared memory
-L2_metrics                             0 # memory access runtime profiling for L2 cache
-DRAM_metrics                           0 # memory access runtime profiling for DRAM
-Shmem_metrics                          0 # memory access runtime profiling for noncoalesced accesses
-store_enable                           0 # Enable stores for memory profiling
-accumulate_stats                       0 # Accumulate stats for the memory profiling
-dump_enable                            0 # Process dump enable flag - (def = 0)
-flush_l1d                              0 # Enable flushings for L1D caches - (default = 0)
-flush_l2                               0 # Enable flushings for L2 caches - (default = 0)
-flush_dram                             0 # Enable flushings for DRAM - (default = 0)
-flush_noncoalesceds                    0 # Enable flushings for non coalesced accesses - (default = 0)
-flush_shmems                           0 # Enable flushings for shared memory accesses - (default = 0)
-error_percentage          21474836480001 # Error percentage for the flushes - (default = 1)
-dump_sampling_cycle       21474836485000 # Dump sampling frequency - (default = 5000)
-flush_acc_type                         2 # Flush access types
-monitor_sampling_cycle                 5000 # Monitoring sampling cycle - (default = 5000)
DRAM Timing Options:
nbk                                    16 # number of banks
CCD                                     4 # column to column delay
RRD                                    12 # minimal delay between activation of rows in different banks
RCD                                    24 # row to column delay
RAS                                    55 # time needed to activate row
RP                                     24 # time needed to precharge (deactivate) row
RC                                     78 # row cycle time
CDLR                                   10 # switching from write to read (changes tWTR)
WR                                     24 # last data-in to row precharge
CL                                     24 # CAS latency
WL                                      8 # Write latency
nbkgrp                                  4 # number of bank groups
CCDL                                    6 # column to column delay between accesses to different bank groups
RTPL                                    4 # read to precharge delay between accesses to different bank groups
Total number of memory sub partition = 24
addr_dec_mask[CHIP]  = 0000000000000000 	high:64 low:0
addr_dec_mask[BK]    = 0000000000007080 	high:15 low:7
addr_dec_mask[ROW]   = 000000000fff8000 	high:28 low:15
addr_dec_mask[COL]   = 0000000000000f7f 	high:12 low:0
addr_dec_mask[BURST] = 000000000000001f 	high:5 low:0
sub_partition_id_mask = 0000000000000080
GPGPU-Sim uArch: clock freqs: 1365000000.000000:1365000000.000000:1365000000.000000:3500500000.000000
GPGPU-Sim uArch: clock periods: 0.00000000073260073260:0.00000000073260073260:0.00000000073260073260:0.00000000028567347522
*** Initializing Memory Statistics ***
GPGPU-Sim uArch: performance model initialization complete.
self exe links to: /home/pars/Documents/sim_9/cc_warp
self exe links to: /home/pars/Documents/sim_9/cc_warp
11.0
GPGPU-Sim PTX: __cudaRegisterFatBinary, fat_cubin_handle = 1, filename=default
self exe links to: /home/pars/Documents/sim_9/cc_warp
Running md5sum using "md5sum /home/pars/Documents/sim_9/cc_warp "
self exe links to: /home/pars/Documents/sim_9/cc_warp
Extracting specific PTX file named cc_warp.1.sm_75.ptx 
GPGPU-Sim PTX: __cudaRegisterFunction _Z8shortcutiPi : hostFun 0x0x55c56e0c8f0b, fat_cubin_handle = 1
GPGPU-Sim PTX: Parsing cc_warp.1.sm_75.ptx
GPGPU-Sim PTX: allocating shared region for "_ZZ4hookiPKmPKiPiPbE4ptrs" from 0x0 to 0x40 (shared memory space)
GPGPU-Sim PTX: instruction assembly for function '_Z4hookiPKmPKiPiPb'...   done.
GPGPU-Sim PTX: instruction assembly for function '_Z8shortcutiPi'...   done.
GPGPU-Sim PTX: finished parsing EMBEDDED .ptx file cc_warp.1.sm_75.ptx
GPGPU-Sim PTX: loading globals with explicit initializers... 
GPGPU-Sim PTX: finished loading globals (0 bytes total).
GPGPU-Sim PTX: loading constants with explicit initializers...  done.
GPGPU-Sim PTX: Loading PTXInfo from cc_warp.1.sm_75.ptx
GPGPU-Sim PTX: Kernel '_Z8shortcutiPi' : regs=12, lmem=0, smem=0, cmem=368
GPGPU-Sim PTX: Kernel '_Z4hookiPKmPKiPiPb' : regs=23, lmem=0, smem=64, cmem=392
GPGPU-Sim PTX: __cudaRegisterFunction _Z4hookiPKmPKiPiPb : hostFun 0x0x55c56e0c8d90, fat_cubin_handle = 1
Connected Component by Xuhao Chen
Reading (.mtx) input file ../CudaBenchmarks/gardenia/datasets/higgs-twitter.mtx
Removing redundent edges... 4694812 redundent edges are removed
|V| 456626 |E| 25016826
This graph is symmetrized
Launching CUDA CC solver (120 CTAs, 256 threads/CTA) ...
GPGPU-Sim PTX: Setting up arguments for 4 bytes starting at 0x7ffed5c8d49c..
GPGPU-Sim PTX: Setting up arguments for 8 bytes starting at 0x7ffed5c8d490..
GPGPU-Sim PTX: Setting up arguments for 8 bytes starting at 0x7ffed5c8d488..
GPGPU-Sim PTX: Setting up arguments for 8 bytes starting at 0x7ffed5c8d480..
GPGPU-Sim PTX: Setting up arguments for 8 bytes starting at 0x7ffed5c8d478..

GPGPU-Sim PTX: cudaLaunch for 0x0x55c56e0c8d90 (mode=performance simulation) on stream 0
GPGPU-Sim PTX: finding reconvergence points for '_Z4hookiPKmPKiPiPb'...
GPGPU-Sim PTX: Finding dominators for '_Z4hookiPKmPKiPiPb'...
GPGPU-Sim PTX: Finding immediate dominators for '_Z4hookiPKmPKiPiPb'...
GPGPU-Sim PTX: Finding postdominators for '_Z4hookiPKmPKiPiPb'...
GPGPU-Sim PTX: Finding immediate postdominators for '_Z4hookiPKmPKiPiPb'...
GPGPU-Sim PTX: pre-decoding instructions for '_Z4hookiPKmPKiPiPb'...
GPGPU-Sim PTX: reconvergence points for _Z4hookiPKmPKiPiPb...
GPGPU-Sim PTX:  1 (potential) branch divergence @  PC=0x090 (cc_warp.1.sm_75.ptx:49) @%p1 bra $L__BB0_34;

GPGPU-Sim PTX:    immediate post dominator      @  PC=0x5c8 (cc_warp.1.sm_75.ptx:277) ret;

GPGPU-Sim PTX:  2 (potential) branch divergence @  PC=0x0f8 (cc_warp.1.sm_75.ptx:65) @%p2 bra $L__BB0_4;

GPGPU-Sim PTX:    immediate post dominator      @  PC=0x128 (cc_warp.1.sm_75.ptx:74) ld.shared.u32 %r9, [%r5];

GPGPU-Sim PTX:  3 (potential) branch divergence @  PC=0x160 (cc_warp.1.sm_75.ptx:81) @%p3 bra $L__BB0_33;

GPGPU-Sim PTX:    immediate post dominator      @  PC=0x5b0 (cc_warp.1.sm_75.ptx:272) add.s32 %r87, %r87, %r7;

GPGPU-Sim PTX:  4 (potential) branch divergence @  PC=0x1a0 (cc_warp.1.sm_75.ptx:90) @%p4 bra $L__BB0_18;

GPGPU-Sim PTX:    immediate post dominator      @  PC=0x370 (cc_warp.1.sm_75.ptx:171) setp.lt.u32 %p13, %r13, 96;

GPGPU-Sim PTX:  5 (potential) branch divergence @  PC=0x1e0 (cc_warp.1.sm_75.ptx:101) @%p5 bra $L__BB0_9;

GPGPU-Sim PTX:    immediate post dominator      @  PC=0x238 (cc_warp.1.sm_75.ptx:116) add.s32 %r88, %r11, 32;

GPGPU-Sim PTX:  6 (potential) branch divergence @  PC=0x220 (cc_warp.1.sm_75.ptx:110) @%p6 bra $L__BB0_9;

GPGPU-Sim PTX:    immediate post dominator      @  PC=0x238 (cc_warp.1.sm_75.ptx:116) add.s32 %r88, %r11, 32;

GPGPU-Sim PTX:  7 (potential) branch divergence @  PC=0x248 (cc_warp.1.sm_75.ptx:118) @%p7 bra $L__BB0_18;

GPGPU-Sim PTX:    immediate post dominator      @  PC=0x370 (cc_warp.1.sm_75.ptx:171) setp.lt.u32 %p13, %r13, 96;

GPGPU-Sim PTX:  8 (potential) branch divergence @  PC=0x278 (cc_warp.1.sm_75.ptx:127) @%p8 bra $L__BB0_13;

GPGPU-Sim PTX:    immediate post dominator      @  PC=0x2d0 (cc_warp.1.sm_75.ptx:142) add.s32 %r88, %r11, 64;

GPGPU-Sim PTX:  9 (potential) branch divergence @  PC=0x2b8 (cc_warp.1.sm_75.ptx:136) @%p9 bra $L__BB0_13;

GPGPU-Sim PTX:    immediate post dominator      @  PC=0x2d0 (cc_warp.1.sm_75.ptx:142) add.s32 %r88, %r11, 64;

GPGPU-Sim PTX: 10 (potential) branch divergence @  PC=0x2e0 (cc_warp.1.sm_75.ptx:144) @%p10 bra $L__BB0_18;

GPGPU-Sim PTX:    immediate post dominator      @  PC=0x370 (cc_warp.1.sm_75.ptx:171) setp.lt.u32 %p13, %r13, 96;

GPGPU-Sim PTX: 11 (potential) branch divergence @  PC=0x310 (cc_warp.1.sm_75.ptx:153) @%p11 bra $L__BB0_17;

GPGPU-Sim PTX:    immediate post dominator      @  PC=0x368 (cc_warp.1.sm_75.ptx:168) add.s32 %r88, %r11, 96;

GPGPU-Sim PTX: 12 (potential) branch divergence @  PC=0x350 (cc_warp.1.sm_75.ptx:162) @%p12 bra $L__BB0_17;

GPGPU-Sim PTX:    immediate post dominator      @  PC=0x368 (cc_warp.1.sm_75.ptx:168) add.s32 %r88, %r11, 96;

GPGPU-Sim PTX: 13 (potential) branch divergence @  PC=0x378 (cc_warp.1.sm_75.ptx:172) @%p13 bra $L__BB0_33;

GPGPU-Sim PTX:    immediate post dominator      @  PC=0x5b0 (cc_warp.1.sm_75.ptx:272) add.s32 %r87, %r87, %r7;

GPGPU-Sim PTX: 14 (potential) branch divergence @  PC=0x3b8 (cc_warp.1.sm_75.ptx:185) @%p14 bra $L__BB0_23;

GPGPU-Sim PTX:    immediate post dominator      @  PC=0x410 (cc_warp.1.sm_75.ptx:200) ld.global.u32 %r73, [%rd48+128];

GPGPU-Sim PTX: 15 (potential) branch divergence @  PC=0x3f8 (cc_warp.1.sm_75.ptx:194) @%p15 bra $L__BB0_23;

GPGPU-Sim PTX:    immediate post dominator      @  PC=0x410 (cc_warp.1.sm_75.ptx:200) ld.global.u32 %r73, [%rd48+128];

GPGPU-Sim PTX: 16 (potential) branch divergence @  PC=0x438 (cc_warp.1.sm_75.ptx:207) @%p16 bra $L__BB0_26;

GPGPU-Sim PTX:    immediate post dominator      @  PC=0x490 (cc_warp.1.sm_75.ptx:222) ld.global.u32 %r78, [%rd48+256];

GPGPU-Sim PTX: 17 (potential) branch divergence @  PC=0x478 (cc_warp.1.sm_75.ptx:216) @%p17 bra $L__BB0_26;

GPGPU-Sim PTX:    immediate post dominator      @  PC=0x490 (cc_warp.1.sm_75.ptx:222) ld.global.u32 %r78, [%rd48+256];

GPGPU-Sim PTX: 18 (potential) branch divergence @  PC=0x4b8 (cc_warp.1.sm_75.ptx:229) @%p18 bra $L__BB0_29;

GPGPU-Sim PTX:    immediate post dominator      @  PC=0x510 (cc_warp.1.sm_75.ptx:244) ld.global.u32 %r83, [%rd48+384];

GPGPU-Sim PTX: 19 (potential) branch divergence @  PC=0x4f8 (cc_warp.1.sm_75.ptx:238) @%p19 bra $L__BB0_29;

GPGPU-Sim PTX:    immediate post dominator      @  PC=0x510 (cc_warp.1.sm_75.ptx:244) ld.global.u32 %r83, [%rd48+384];

GPGPU-Sim PTX: 20 (potential) branch divergence @  PC=0x538 (cc_warp.1.sm_75.ptx:251) @%p20 bra $L__BB0_32;

GPGPU-Sim PTX:    immediate post dominator      @  PC=0x590 (cc_warp.1.sm_75.ptx:266) add.s32 %r88, %r88, 128;

GPGPU-Sim PTX: 21 (potential) branch divergence @  PC=0x578 (cc_warp.1.sm_75.ptx:260) @%p21 bra $L__BB0_32;

GPGPU-Sim PTX:    immediate post dominator      @  PC=0x590 (cc_warp.1.sm_75.ptx:266) add.s32 %r88, %r88, 128;

GPGPU-Sim PTX: 22 (potential) branch divergence @  PC=0x5a8 (cc_warp.1.sm_75.ptx:269) @%p22 bra $L__BB0_20;

GPGPU-Sim PTX:    immediate post dominator      @  PC=0x5b0 (cc_warp.1.sm_75.ptx:272) add.s32 %r87, %r87, %r7;

GPGPU-Sim PTX: 23 (potential) branch divergence @  PC=0x5c0 (cc_warp.1.sm_75.ptx:274) @%p23 bra $L__BB0_2;

GPGPU-Sim PTX:    immediate post dominator      @  PC=0x5c8 (cc_warp.1.sm_75.ptx:277) ret;

GPGPU-Sim PTX: ... end of reconvergence points for _Z4hookiPKmPKiPiPb
GPGPU-Sim PTX: ... done pre-decoding instructions for '_Z4hookiPKmPKiPiPb'.
GPGPU-Sim PTX: pushing kernel '_Z4hookiPKmPKiPiPb' to stream 0, gridDim= (120,1,1) blockDim = (256,1,1) 
GPGPU-Sim uArch: Shader 0 bind to kernel 1 '_Z4hookiPKmPKiPiPb'
GPGPU-Sim uArch: CTA/core = 4, limited by: threads
GPGPU-Sim: Reconfigure L1 cache to 64KB
GPGPU-Sim uArch: Shader 1 bind to kernel 1 '_Z4hookiPKmPKiPiPb'
GPGPU-Sim uArch: Shader 2 bind to kernel 1 '_Z4hookiPKmPKiPiPb'
GPGPU-Sim uArch: Shader 3 bind to kernel 1 '_Z4hookiPKmPKiPiPb'
GPGPU-Sim uArch: Shader 4 bind to kernel 1 '_Z4hookiPKmPKiPiPb'
GPGPU-Sim uArch: Shader 5 bind to kernel 1 '_Z4hookiPKmPKiPiPb'
GPGPU-Sim uArch: Shader 6 bind to kernel 1 '_Z4hookiPKmPKiPiPb'
GPGPU-Sim uArch: Shader 7 bind to kernel 1 '_Z4hookiPKmPKiPiPb'
GPGPU-Sim uArch: Shader 8 bind to kernel 1 '_Z4hookiPKmPKiPiPb'
GPGPU-Sim uArch: Shader 9 bind to kernel 1 '_Z4hookiPKmPKiPiPb'
GPGPU-Sim uArch: Shader 10 bind to kernel 1 '_Z4hookiPKmPKiPiPb'
GPGPU-Sim uArch: Shader 11 bind to kernel 1 '_Z4hookiPKmPKiPiPb'
GPGPU-Sim uArch: Shader 12 bind to kernel 1 '_Z4hookiPKmPKiPiPb'
GPGPU-Sim uArch: Shader 13 bind to kernel 1 '_Z4hookiPKmPKiPiPb'
GPGPU-Sim uArch: Shader 14 bind to kernel 1 '_Z4hookiPKmPKiPiPb'
GPGPU-Sim uArch: Shader 15 bind to kernel 1 '_Z4hookiPKmPKiPiPb'
GPGPU-Sim uArch: Shader 16 bind to kernel 1 '_Z4hookiPKmPKiPiPb'
GPGPU-Sim uArch: Shader 17 bind to kernel 1 '_Z4hookiPKmPKiPiPb'
GPGPU-Sim uArch: Shader 18 bind to kernel 1 '_Z4hookiPKmPKiPiPb'
GPGPU-Sim uArch: Shader 19 bind to kernel 1 '_Z4hookiPKmPKiPiPb'
GPGPU-Sim uArch: Shader 20 bind to kernel 1 '_Z4hookiPKmPKiPiPb'
GPGPU-Sim uArch: Shader 21 bind to kernel 1 '_Z4hookiPKmPKiPiPb'
GPGPU-Sim uArch: Shader 22 bind to kernel 1 '_Z4hookiPKmPKiPiPb'
GPGPU-Sim uArch: Shader 23 bind to kernel 1 '_Z4hookiPKmPKiPiPb'
GPGPU-Sim uArch: Shader 24 bind to kernel 1 '_Z4hookiPKmPKiPiPb'
GPGPU-Sim uArch: Shader 25 bind to kernel 1 '_Z4hookiPKmPKiPiPb'
GPGPU-Sim uArch: Shader 26 bind to kernel 1 '_Z4hookiPKmPKiPiPb'
GPGPU-Sim uArch: Shader 27 bind to kernel 1 '_Z4hookiPKmPKiPiPb'
GPGPU-Sim uArch: Shader 28 bind to kernel 1 '_Z4hookiPKmPKiPiPb'
GPGPU-Sim uArch: Shader 29 bind to kernel 1 '_Z4hookiPKmPKiPiPb'
Destroy streams for kernel 1: size 0
kernel_name = _Z4hookiPKmPKiPiPb 
kernel_launch_uid = 1 
gpu_sim_cycle = 3352838
gpu_sim_insn = 624553991
gpu_ipc =     186.2762
gpu_tot_sim_cycle = 3352838
gpu_tot_sim_insn = 624553991
gpu_tot_ipc =     186.2762
gpu_tot_issued_cta = 120
gpu_occupancy = 69.0967% 
gpu_tot_occupancy = 69.0967% 
max_total_param_size = 0
gpu_stall_dramfull = 0
gpu_stall_icnt2sh    = 0
partiton_level_parallism =       7.9109
partiton_level_parallism_total  =       7.9109
partiton_level_parallism_util =      11.6258
partiton_level_parallism_util_total  =      11.6258
L2_BW  =     345.5464 GB/Sec
L2_BW_total  =     345.5464 GB/Sec
gpu_total_sim_rate=27053

========= Core cache stats =========
L1I_cache:
	L1I_total_cache_accesses = 0
	L1I_total_cache_misses = 0
	L1I_total_cache_pending_hits = 0
	L1I_total_cache_reservation_fails = 0
L1D_cache:
	L1D_cache_core[0]: Access = 1395975, Miss = 950338, Miss_rate = 0.681, Pending_hits = 48233, Reservation_fails = 1185041
	L1D_cache_core[1]: Access = 1275798, Miss = 888372, Miss_rate = 0.696, Pending_hits = 51219, Reservation_fails = 1035882
	L1D_cache_core[2]: Access = 1343011, Miss = 928093, Miss_rate = 0.691, Pending_hits = 54480, Reservation_fails = 1117270
	L1D_cache_core[3]: Access = 1261655, Miss = 873727, Miss_rate = 0.693, Pending_hits = 42163, Reservation_fails = 1001171
	L1D_cache_core[4]: Access = 1279134, Miss = 919629, Miss_rate = 0.719, Pending_hits = 55008, Reservation_fails = 1136047
	L1D_cache_core[5]: Access = 1256659, Miss = 859891, Miss_rate = 0.684, Pending_hits = 37344, Reservation_fails = 969931
	L1D_cache_core[6]: Access = 1197890, Miss = 819645, Miss_rate = 0.684, Pending_hits = 36011, Reservation_fails = 901635
	L1D_cache_core[7]: Access = 1323325, Miss = 879126, Miss_rate = 0.664, Pending_hits = 46204, Reservation_fails = 927442
	L1D_cache_core[8]: Access = 1219141, Miss = 834510, Miss_rate = 0.685, Pending_hits = 41953, Reservation_fails = 944326
	L1D_cache_core[9]: Access = 1300540, Miss = 885529, Miss_rate = 0.681, Pending_hits = 44984, Reservation_fails = 940907
	L1D_cache_core[10]: Access = 1355309, Miss = 932593, Miss_rate = 0.688, Pending_hits = 56108, Reservation_fails = 1095400
	L1D_cache_core[11]: Access = 1301230, Miss = 902420, Miss_rate = 0.694, Pending_hits = 55501, Reservation_fails = 1083319
	L1D_cache_core[12]: Access = 1192127, Miss = 826642, Miss_rate = 0.693, Pending_hits = 42542, Reservation_fails = 942590
	L1D_cache_core[13]: Access = 1236202, Miss = 847424, Miss_rate = 0.686, Pending_hits = 41154, Reservation_fails = 951983
	L1D_cache_core[14]: Access = 1206725, Miss = 837048, Miss_rate = 0.694, Pending_hits = 46930, Reservation_fails = 996255
	L1D_cache_core[15]: Access = 1197460, Miss = 834049, Miss_rate = 0.697, Pending_hits = 45160, Reservation_fails = 984554
	L1D_cache_core[16]: Access = 1233035, Miss = 852984, Miss_rate = 0.692, Pending_hits = 49028, Reservation_fails = 990147
	L1D_cache_core[17]: Access = 1252726, Miss = 856429, Miss_rate = 0.684, Pending_hits = 45976, Reservation_fails = 929551
	L1D_cache_core[18]: Access = 1170328, Miss = 816930, Miss_rate = 0.698, Pending_hits = 40677, Reservation_fails = 947896
	L1D_cache_core[19]: Access = 1212825, Miss = 838409, Miss_rate = 0.691, Pending_hits = 32133, Reservation_fails = 946945
	L1D_cache_core[20]: Access = 1173789, Miss = 804011, Miss_rate = 0.685, Pending_hits = 45413, Reservation_fails = 923377
	L1D_cache_core[21]: Access = 1114897, Miss = 769070, Miss_rate = 0.690, Pending_hits = 35879, Reservation_fails = 826260
	L1D_cache_core[22]: Access = 1149887, Miss = 787889, Miss_rate = 0.685, Pending_hits = 34107, Reservation_fails = 849001
	L1D_cache_core[23]: Access = 1263228, Miss = 869427, Miss_rate = 0.688, Pending_hits = 42099, Reservation_fails = 1015791
	L1D_cache_core[24]: Access = 1280317, Miss = 880585, Miss_rate = 0.688, Pending_hits = 27435, Reservation_fails = 990310
	L1D_cache_core[25]: Access = 1359284, Miss = 941525, Miss_rate = 0.693, Pending_hits = 48499, Reservation_fails = 1093438
	L1D_cache_core[26]: Access = 1272877, Miss = 887287, Miss_rate = 0.697, Pending_hits = 53815, Reservation_fails = 1069948
	L1D_cache_core[27]: Access = 1334619, Miss = 922664, Miss_rate = 0.691, Pending_hits = 47190, Reservation_fails = 1056115
	L1D_cache_core[28]: Access = 1248203, Miss = 869783, Miss_rate = 0.697, Pending_hits = 38827, Reservation_fails = 982370
	L1D_cache_core[29]: Access = 1217636, Miss = 854408, Miss_rate = 0.702, Pending_hits = 37519, Reservation_fails = 989087
	L1D_total_cache_accesses = 37625832
	L1D_total_cache_misses = 25970437
	L1D_total_cache_miss_rate = 0.6902
	L1D_total_cache_pending_hits = 1323591
	L1D_total_cache_reservation_fails = 29823989
	L1D_cache_data_port_util = 0.135
	L1D_cache_fill_port_util = 0.338
L1C_cache:
	L1C_total_cache_accesses = 0
	L1C_total_cache_misses = 0
	L1C_total_cache_pending_hits = 0
	L1C_total_cache_reservation_fails = 0
L1T_cache:
	L1T_total_cache_accesses = 0
	L1T_total_cache_misses = 0
	L1T_total_cache_pending_hits = 0
	L1T_total_cache_reservation_fails = 0

Total_core_cache_stats:
	Total_core_cache_stats_breakdown[GLOBAL_ACC_R][HIT] = 9778412
	Total_core_cache_stats_breakdown[GLOBAL_ACC_R][HIT_RESERVED] = 1323585
	Total_core_cache_stats_breakdown[GLOBAL_ACC_R][MISS] = 19458728
	Total_core_cache_stats_breakdown[GLOBAL_ACC_R][RESERVATION_FAIL] = 29785299
	Total_core_cache_stats_breakdown[GLOBAL_ACC_R][SECTOR_MISS] = 6505581
	Total_core_cache_stats_breakdown[GLOBAL_ACC_R][MSHR_HIT] = 1323585
	Total_core_cache_stats_breakdown[LOCAL_ACC_R][HIT] = 0
	Total_core_cache_stats_breakdown[LOCAL_ACC_R][HIT_RESERVED] = 0
	Total_core_cache_stats_breakdown[LOCAL_ACC_R][MISS] = 0
	Total_core_cache_stats_breakdown[LOCAL_ACC_R][RESERVATION_FAIL] = 0
	Total_core_cache_stats_breakdown[LOCAL_ACC_R][SECTOR_MISS] = 0
	Total_core_cache_stats_breakdown[LOCAL_ACC_R][MSHR_HIT] = 0
	Total_core_cache_stats_breakdown[CONST_ACC_R][HIT] = 0
	Total_core_cache_stats_breakdown[CONST_ACC_R][HIT_RESERVED] = 0
	Total_core_cache_stats_breakdown[CONST_ACC_R][MISS] = 0
	Total_core_cache_stats_breakdown[CONST_ACC_R][RESERVATION_FAIL] = 0
	Total_core_cache_stats_breakdown[CONST_ACC_R][SECTOR_MISS] = 0
	Total_core_cache_stats_breakdown[CONST_ACC_R][MSHR_HIT] = 0
	Total_core_cache_stats_breakdown[TEXTURE_ACC_R][HIT] = 0
	Total_core_cache_stats_breakdown[TEXTURE_ACC_R][HIT_RESERVED] = 0
	Total_core_cache_stats_breakdown[TEXTURE_ACC_R][MISS] = 0
	Total_core_cache_stats_breakdown[TEXTURE_ACC_R][RESERVATION_FAIL] = 0
	Total_core_cache_stats_breakdown[TEXTURE_ACC_R][SECTOR_MISS] = 0
	Total_core_cache_stats_breakdown[TEXTURE_ACC_R][MSHR_HIT] = 0
	Total_core_cache_stats_breakdown[GLOBAL_ACC_W][HIT] = 553392
	Total_core_cache_stats_breakdown[GLOBAL_ACC_W][HIT_RESERVED] = 6
	Total_core_cache_stats_breakdown[GLOBAL_ACC_W][MISS] = 5971
	Total_core_cache_stats_breakdown[GLOBAL_ACC_W][RESERVATION_FAIL] = 38690
	Total_core_cache_stats_breakdown[GLOBAL_ACC_W][SECTOR_MISS] = 157
	Total_core_cache_stats_breakdown[GLOBAL_ACC_W][MSHR_HIT] = 0
	Total_core_cache_stats_breakdown[LOCAL_ACC_W][HIT] = 0
	Total_core_cache_stats_breakdown[LOCAL_ACC_W][HIT_RESERVED] = 0
	Total_core_cache_stats_breakdown[LOCAL_ACC_W][MISS] = 0
	Total_core_cache_stats_breakdown[LOCAL_ACC_W][RESERVATION_FAIL] = 0
	Total_core_cache_stats_breakdown[LOCAL_ACC_W][SECTOR_MISS] = 0
	Total_core_cache_stats_breakdown[LOCAL_ACC_W][MSHR_HIT] = 0
	Total_core_cache_stats_breakdown[L1_WRBK_ACC][HIT] = 0
	Total_core_cache_stats_breakdown[L1_WRBK_ACC][HIT_RESERVED] = 0
	Total_core_cache_stats_breakdown[L1_WRBK_ACC][MISS] = 0
	Total_core_cache_stats_breakdown[L1_WRBK_ACC][RESERVATION_FAIL] = 0
	Total_core_cache_stats_breakdown[L1_WRBK_ACC][SECTOR_MISS] = 0
	Total_core_cache_stats_breakdown[L1_WRBK_ACC][MSHR_HIT] = 0
	Total_core_cache_stats_breakdown[L2_WRBK_ACC][HIT] = 0
	Total_core_cache_stats_breakdown[L2_WRBK_ACC][HIT_RESERVED] = 0
	Total_core_cache_stats_breakdown[L2_WRBK_ACC][MISS] = 0
	Total_core_cache_stats_breakdown[L2_WRBK_ACC][RESERVATION_FAIL] = 0
	Total_core_cache_stats_breakdown[L2_WRBK_ACC][SECTOR_MISS] = 0
	Total_core_cache_stats_breakdown[L2_WRBK_ACC][MSHR_HIT] = 0
	Total_core_cache_stats_breakdown[INST_ACC_R][HIT] = 0
	Total_core_cache_stats_breakdown[INST_ACC_R][HIT_RESERVED] = 0
	Total_core_cache_stats_breakdown[INST_ACC_R][MISS] = 0
	Total_core_cache_stats_breakdown[INST_ACC_R][RESERVATION_FAIL] = 0
	Total_core_cache_stats_breakdown[INST_ACC_R][SECTOR_MISS] = 0
	Total_core_cache_stats_breakdown[INST_ACC_R][MSHR_HIT] = 0
	Total_core_cache_stats_breakdown[L1_WR_ALLOC_R][HIT] = 0
	Total_core_cache_stats_breakdown[L1_WR_ALLOC_R][HIT_RESERVED] = 0
	Total_core_cache_stats_breakdown[L1_WR_ALLOC_R][MISS] = 0
	Total_core_cache_stats_breakdown[L1_WR_ALLOC_R][RESERVATION_FAIL] = 0
	Total_core_cache_stats_breakdown[L1_WR_ALLOC_R][SECTOR_MISS] = 0
	Total_core_cache_stats_breakdown[L1_WR_ALLOC_R][MSHR_HIT] = 0
	Total_core_cache_stats_breakdown[L2_WR_ALLOC_R][HIT] = 0
	Total_core_cache_stats_breakdown[L2_WR_ALLOC_R][HIT_RESERVED] = 0
	Total_core_cache_stats_breakdown[L2_WR_ALLOC_R][MISS] = 0
	Total_core_cache_stats_breakdown[L2_WR_ALLOC_R][RESERVATION_FAIL] = 0
	Total_core_cache_stats_breakdown[L2_WR_ALLOC_R][SECTOR_MISS] = 0
	Total_core_cache_stats_breakdown[L2_WR_ALLOC_R][MSHR_HIT] = 0
	Total_core_cache_stats_breakdown[GLOBAL_ACC_R][TOTAL_ACCESS] = 37066306
	Total_core_cache_stats_breakdown[GLOBAL_ACC_W][TOTAL_ACCESS] = 559526

Total_core_cache_fail_stats:
	Total_core_cache_fail_stats_breakdown[GLOBAL_ACC_R][LINE_ALLOC_FAIL] = 558663
	Total_core_cache_fail_stats_breakdown[GLOBAL_ACC_R][MISS_QUEUE_FULL] = 8946345
	Total_core_cache_fail_stats_breakdown[GLOBAL_ACC_R][MSHR_ENRTY_FAIL] = 20280291
	Total_core_cache_fail_stats_breakdown[GLOBAL_ACC_W][LINE_ALLOC_FAIL] = 918
	Total_core_cache_fail_stats_breakdown[GLOBAL_ACC_W][MISS_QUEUE_FULL] = 37772
ctas_completed 120, Shader 0 warp_id issue ditsribution:
warp_id:
0, 1, 2, 3, 4, 5, 6, 7, 8, 9, 10, 11, 12, 13, 14, 15, 16, 17, 18, 19, 20, 21, 22, 23, 24, 25, 26, 27, 28, 29, 30, 31, 
distro:
41173, 34349, 32392, 34954, 39884, 42534, 33176, 44692, 37659, 31919, 30662, 33498, 33979, 33550, 30712, 41291, 34432, 31636, 31708, 34866, 33541, 31522, 30819, 30841, 33730, 29435, 34030, 33447, 30340, 32264, 30907, 29514, 
gpgpu_n_tot_thrd_icount = 1004976832
gpgpu_n_tot_w_icount = 31405526
gpgpu_n_stall_shd_mem = 19578990
gpgpu_n_mem_read_local = 0
gpgpu_n_mem_write_local = 0
gpgpu_n_mem_read_global = 25964309
gpgpu_n_mem_write_global = 559526
gpgpu_n_mem_texture = 0
gpgpu_n_mem_const = 0
gpgpu_n_load_insn  = 89384829
gpgpu_n_store_insn = 938548
gpgpu_n_shmem_insn = 30137316
gpgpu_n_sstarr_insn = 0
gpgpu_n_tex_insn = 0
gpgpu_n_const_mem_insn = 0
gpgpu_n_param_mem_insn = 153600
gpgpu_n_shmem_bkconflict = 0
gpgpu_n_cache_bkconflict = 0
gpgpu_n_intrawarp_mshr_merge = 0
gpgpu_n_cmem_portconflict = 0
gpgpu_stall_shd_mem[c_mem][resource_stall] = 0
gpgpu_stall_shd_mem[s_mem][bk_conf] = 0
gpgpu_stall_shd_mem[gl_mem][resource_stall] = 17763216
gpgpu_stall_shd_mem[gl_mem][coal_stall] = 1815774
gpgpu_stall_shd_mem[gl_mem][data_port_stall] = 0
gpu_reg_bank_conflict_stalls = 0
Warp Occupancy Distribution:
Stall:9705432	W0_Idle:49215054	W0_Scoreboard:216547600	W1:955660	W2:3002766	W3:685446	W4:662526	W5:637668	W6:607922	W7:578289	W8:555370	W9:526510	W10:500046	W11:477079	W12:454496	W13:441447	W14:420610	W15:404361	W16:383183	W17:373583	W18:359858	W19:353076	W20:339992	W21:323825	W22:321268	W23:317169	W24:313176	W25:312630	W26:321834	W27:336944	W28:366069	W29:424930	W30:560792	W31:1077069	W32:14009932
single_issue_nums: WS0:7871924	WS1:7844511	WS2:7830278	WS3:7858813	
dual_issue_nums: WS0:0	WS1:0	WS2:0	WS3:0	
traffic_breakdown_coretomem[GLOBAL_ACC_R] = 207714472 {8:25964309,}
traffic_breakdown_coretomem[GLOBAL_ACC_W] = 22381040 {40:559526,}
traffic_breakdown_memtocore[GLOBAL_ACC_R] = 1038572360 {40:25964309,}
traffic_breakdown_memtocore[GLOBAL_ACC_W] = 4476208 {8:559526,}
maxmflatency = 1291 
max_icnt2mem_latency = 1093 
maxmrqlatency = 829 
max_icnt2sh_latency = 152 
averagemflatency = 392 
avg_icnt2mem_latency = 159 
avg_mrq_latency = 13 
avg_icnt2sh_latency = 11 
mrq_lat_table:2432606 	51589 	110752 	385494 	1240530 	474441 	138588 	17613 	1838 	82 	0 	0 	0 	0 	0 	0 	0 	0 	0 	0 	0 	0 	0 	0 	0 	0 	0 	0 	0 	0 	0 	0 	
dq_lat_table:0 	0 	0 	0 	0 	0 	0 	0 	0 	0 	0 	0 	0 	0 	0 	0 	0 	0 	0 	0 	0 	0 	0 	0 	0 	0 	0 	0 	0 	0 	0 	0 	
mf_lat_table:0 	0 	0 	0 	0 	0 	0 	3609018 	19041267 	3873166 	384 	0 	0 	0 	0 	0 	0 	0 	0 	0 	0 	0 	0 	0 	0 	0 	0 	0 	0 	0 	0 	0 	
icnt2mem_lat_table:0 	0 	0 	0 	0 	7630476 	4881117 	8483812 	5441979 	86443 	8 	0 	0 	0 	0 	0 	0 	0 	0 	0 	0 	0 	0 	0 	
icnt2sh_lat_table:0 	7766669 	6402743 	6083639 	4449231 	1679895 	141451 	207 	0 	0 	0 	0 	0 	0 	0 	0 	0 	0 	0 	0 	0 	0 	0 	0 	
mf_lat_pw_table:0 	0 	0 	0 	0 	0 	0 	49 	3261 	37 	0 	0 	0 	0 	0 	0 	0 	0 	0 	0 	0 	0 	0 	0 	0 	0 	0 	0 	0 	0 	0 	0 	
maximum concurrent accesses to same row:
dram[0]:        12        12         7         7         7        10         8         9         8         8         7         8         8         8         8         8 
dram[1]:        12        12         8         8        10         7         8         8         8         8         9         8         8         8         8         9 
dram[2]:        12        12         8         8         7         8         7         7         9         8         7        10         8         8         8        10 
dram[3]:        12        12         8         8        13         7         8         8         7         8         8         6        10         8        10         8 
dram[4]:        12        12         7         8        10        10         8         8         8         7         8         7         8         8         8         8 
dram[5]:        12        12         7         8         8        12         7         8         8         8         9         7         8         8         8        12 
dram[6]:         9         8         7         8         7         7        11         8         8         8         8         8         8         8         8        10 
dram[7]:        10         9         7         8         8         9         8         8         8         8         8         7         8         8         8         8 
dram[8]:        11         8         8         8         9        13         7         8         8         8         7         7         7         9         8         8 
dram[9]:         9         8        10         8        12         8         7         8         8        10         8         7        10         9         8         9 
dram[10]:         8         8         7         8        10        10         7         7         8         8        11         7         9         8         8         8 
dram[11]:         9         8         8         9         9         7        11         7         8         8         8         7         8         9        12         8 
maximum service time to same row:
dram[0]:     71310     78942     70582     37307     69921    122132     67361     94265     72053    117856     41997    104581    133727     52665     69187     65118 
dram[1]:     95356    162408    113332     76419     74956     97810     94690     57228     73249     62881    174528     56235     85809     60830     55918     81117 
dram[2]:     99327     72518     47515    107143     85114     43085     58736    105776    159386     67287     77501     71335     96425     64942     69959    149984 
dram[3]:     38222     83003    127140    141863     88327    144841     34177    114404    132018     82246     72512     61558     54369     83892     68150     49384 
dram[4]:     92938     80140     57223     44409     57629     61148    111708     70871     69248     64103     39839     97316     51783    131969     73752     75364 
dram[5]:     68114    158590    136365    333044     55345     89838    118865     77356    158062    224204     76458     80781     51791     71940    117162    144185 
dram[6]:     71215    135720     80996     65716     58578    137808     58626     65793     65030     59543     70732     74776     68068     71507     95908     53714 
dram[7]:    127323    109538    141963     65196     79347     53474    113865    118933    102769    181711    105753    182564     93534    167411     84434     93371 
dram[8]:     85800     73080    112119     68959     66343     37625     79001    123246     84842     57440     39268    104061     64507     47236     47287     77759 
dram[9]:     41946    201321    174980    139025     41398     86449    115623     72911     75649     79125    108363     54396     84862    105460    148412    158087 
dram[10]:    162333     66662     55352     90086     93720     76027     54485     62596     81927     69218     82774     74848     86606     79803     44523     89373 
dram[11]:     54107    177064     60352     92708    113520    242813     80578    165419     98531    170307    150008     68960     57214    145577     84721    132338 
average row accesses per activate:
dram[0]:  1.671194  1.675859  1.655024  1.655933  1.696313  1.685658  1.717059  1.717034  1.702825  1.699932  1.693267  1.688769  1.745097  1.732581  1.721285  1.712649 
dram[1]:  1.668969  1.658039  1.657872  1.650864  1.693783  1.691219  1.708325  1.706529  1.687367  1.700868  1.675889  1.689825  1.713664  1.722532  1.702661  1.706065 
dram[2]:  1.667791  1.664658  1.656221  1.650872  1.701538  1.688333  1.707586  1.716180  1.701443  1.691366  1.686316  1.685161  1.732072  1.724081  1.704640  1.722013 
dram[3]:  1.668903  1.645089  1.649854  1.644857  1.695353  1.684487  1.718706  1.697143  1.704929  1.694961  1.695574  1.703094  1.725167  1.735653  1.720880  1.700933 
dram[4]:  1.664051  1.655757  1.649570  1.653294  1.690973  1.695097  1.699065  1.707847  1.680789  1.685417  1.698697  1.698438  1.727085  1.735685  1.707913  1.718204 
dram[5]:  1.667455  1.660940  1.671537  1.656309  1.712165  1.700510  1.714568  1.701317  1.694185  1.691687  1.691033  1.688946  1.738362  1.724418  1.711862  1.714868 
dram[6]:  1.661104  1.654250  1.665919  1.657562  1.687442  1.685596  1.708374  1.718924  1.692844  1.690893  1.702508  1.686289  1.737296  1.724369  1.704750  1.703430 
dram[7]:  1.658530  1.647620  1.656072  1.653458  1.693388  1.687752  1.712546  1.704401  1.683076  1.694108  1.691918  1.682107  1.723950  1.736366  1.708331  1.729331 
dram[8]:  1.661722  1.660190  1.663132  1.667322  1.691424  1.692509  1.704492  1.720568  1.677042  1.702982  1.683084  1.683653  1.729231  1.728948  1.710785  1.715270 
dram[9]:  1.646788  1.661524  1.653049  1.649235  1.687641  1.696607  1.713111  1.703141  1.692500  1.693699  1.694684  1.696574  1.735343  1.728973  1.697827  1.709890 
dram[10]:  1.652340  1.670381  1.640279  1.642695  1.684047  1.696898  1.709399  1.731864  1.689681  1.706463  1.697525  1.696951  1.719517  1.730301  1.699844  1.715160 
dram[11]:  1.665288  1.653573  1.666059  1.657796  1.707396  1.691375  1.726416  1.714709  1.705104  1.692158  1.704180  1.693398  1.743038  1.726353  1.707917  1.715572 
average row locality = 4853533/2867939 = 1.692342
number of total memory accesses made:
dram[0]:         0         0         0         0         0         0         0         0         0         0         0         0         0         0         0         0 
dram[1]:         0         0         0         0         0         0         0         0         0         0         0         0         0         0         0         0 
dram[2]:         0         0         0         0         0         0         0         0         0         0         0         0         0         0         0         0 
dram[3]:         0         0         0         0         0         0         0         0         0         0         0         0         0         0         0         0 
dram[4]:         0         0         0         0         0         0         0         0         0         0         0         0         0         0         0         0 
dram[5]:         0         0         0         0         0         0         0         0         0         0         0         0         0         0         0         0 
dram[6]:         0         0         0         0         0         0         0         0         0         0         0         0         0         0         0         0 
dram[7]:         0         0         0         0         0         0         0         0         0         0         0         0         0         0         0         0 
dram[8]:         0         0         0         0         0         0         0         0         0         0         0         0         0         0         0         0 
dram[9]:         0         0         0         0         0         0         0         0         0         0         0         0         0         0         0         0 
dram[10]:         0         0         0         0         0         0         0         0         0         0         0         0         0         0         0         0 
dram[11]:         0         0         0         0         0         0         0         0         0         0         0         0         0         0         0         0 
total accesses: 0
min_bank_accesses = 0!
min_chip_accesses = 0!
number of total read accesses:
dram[0]:     25771     25779     26091     26147     24956     25101     24198     24343     24887     24600     25189     25107     23764     23866     24289     24353 
dram[1]:     25949     26102     26442     26235     25220     25040     24465     24528     24956     24967     25404     25123     24149     24163     24724     24384 
dram[2]:     25789     25545     26149     26199     24860     24817     24348     24131     25010     24829     25117     25130     23908     23703     24615     24438 
dram[3]:     25689     25985     26117     26348     24730     24978     24257     24281     24718     25023     25003     24724     23995     23812     24370     24303 
dram[4]:     25651     25713     26038     26220     25146     25088     24424     24293     25130     24815     25222     25115     24014     23678     24550     24203 
dram[5]:     25682     25576     25883     26089     24782     24643     24038     24115     24527     24864     24985     25102     23755     23876     24406     24088 
dram[6]:     25769     26031     26266     26265     25065     25137     24147     24103     24914     25089     24734     25218     23546     23993     24468     24628 
dram[7]:     26137     26169     26190     26500     24928     25120     24305     24313     25209     25004     25027     25330     24123     23966     24574     24226 
dram[8]:     25982     25639     26200     25804     25081     24803     24458     23928     24937     24703     25288     25262     23749     23664     24441     24078 
dram[9]:     25667     25834     26264     26345     24984     24886     24073     24377     24777     24859     25195     25115     23766     23780     24591     24313 
dram[10]:     26013     25513     26486     26201     25114     24863     24424     23980     24951     24413     25054     24897     24104     23802     24691     24309 
dram[11]:     25764     25887     26045     25999     24517     24852     23902     24030     24503     24908     24809     25014     23665     23936     24603     24278 
total dram reads = 4785788
bank skew: 26500/23546 = 1.13
chip skew: 401851/396411 = 1.01
number of total write accesses:
dram[0]:       911       854       915       880       807       836       659       650       688       697       721       708       593       597       684       712 
dram[1]:       801       835       985       857       814       871       657       661       729       687       681       673       585       663       768       706 
dram[2]:       844       846       874       976       768       803       654       700       721       703       737       727       621       585       757       683 
dram[3]:       862       905       943       953       838       797       656       686       709       727       692       694       638       554       731       690 
dram[4]:       877       883       897       959       787       821       650       662       718       692       735       699       588       552       744       673 
dram[5]:       848       871       874       906       768       809       649       664       714       667       705       765       577       646       693       732 
dram[6]:       843       896       939       960       868       830       630       663       697       678       692       751       581       557       729       691 
dram[7]:       897       893       970       968       807       804       653       720       715       726       724       730       592       562       686       632 
dram[8]:       915       853       916       966       826       794       638       623       683       680       740       739       569       585       641       708 
dram[9]:       895       899       916       966       810       783       626       649       724       682       749       720       544       593       745       670 
dram[10]:       869       857       990       988       769       784       654       636       693       709       696       680       600       563       731       729 
dram[11]:       851       952       944       922       792       807       589       650       744       715       724       702       561       620       753       669 
total dram writes = 143658
bank skew: 990/544 = 1.82
chip skew: 12079/11876 = 1.02
average mf latency per bank:
dram[0]:       1939      1945      1875      1923      1896      1821      1545      1648      1528      1493      1381      1454      3567      3497      2820      2612
dram[1]:       2172      2012      1821      1825      1787      1752      1660      1644      1426      1505      1412      1474      3742      2892      2959      3128
dram[2]:       2055      2379      1861      1748      1864      1762      1695      1645      1485      1463      1400      1378      3995      4407      2765      2862
dram[3]:       2121      1997      1873      1883      1732      1671      1621      1633      1506      1558      1426      1441      3424      4210      3119      2452
dram[4]:       2143      2017      2125      1844      1774      1704      1642      1592      1466      1560      1338      1389      4111      3751      2552      2792
dram[5]:       2059      2170      1898      1885      1820      1975      1559      1605      1565      1452      1402      1435      3806      3908      2718      2665
dram[6]:       2093      2032      1841      1757      2022      1813      1713      1597      1488      1463      1508      1345      4734      4411      2567      2392
dram[7]:       1990      2039      1940      1843      1725      1808      1700      1696      1414      1491      1477      1453      4127      3967      2592      2804
dram[8]:       1962      2272      1926      1966      1795      1939      1660      1743      1505      1451      1401      1390      4277      3721      2616      2627
dram[9]:       2272      2233      1858      1914      1766      1731      3394      1601      1520      1404      1376      1412      4357      4223      2646      2496
dram[10]:       2238      2015      1716      1795      1729      1802      1572      1684      1498      1579      1501      1452      4273      3440      2285      2374
dram[11]:       1864      1975      1916      1817      1824      1848      1632      1651      1595      1499      1425      1424      3738      4340      2319      2550
maximum mf latency per bank:
dram[0]:       1061      1089      1110      1010      1055      1052      1089      1046       966      1007      1049       987      1051      1053      1093      1084
dram[1]:       1047      1083      1107      1055      1083       968       993      1034      1003      1000       997      1098      1060      1129      1126      1231
dram[2]:       1234      1190      1085      1143      1083      1050      1006       909      1041       965      1058      1184      1044      1120      1132      1128
dram[3]:       1118      1026      1035      1043       996      1127      1174       970      1018      1039      1071       947      1049      1098      1121      1029
dram[4]:       1033      1028      1044      1143       997      1100      1194      1014      1083       983      1050      1109      1114      1152      1125      1130
dram[5]:       1026      1071      1096      1100      1068      1025      1021       996      1057      1231      1042      1015      1125      1117      1020      1043
dram[6]:       1077      1047      1104      1083      1016      1049      1044      1065      1022      1074      1073      1041      1071      1048      1118      1065
dram[7]:       1137      1058      1046      1110      1079       988      1002      1127      1013      1073      1124      1044      1049      1123      1120      1048
dram[8]:       1076      1025      1038      1138       995      1052      1138      1053      1053      1041      1231      1019      1021      1291      1050      1034
dram[9]:       1051      1070      1147      1075      1237      1137      1113       973      1045      1049       974      1017      1085      1120      1022      1046
dram[10]:       1090      1080      1067      1102      1122      1043      1001      1049      1091      1231      1001      1121      1291      1054      1133      1095
dram[11]:       1016      1034      1034      1046      1075      1022      1035      1062      1033      1033       974      1072      1025      1122      1130      1138

Number of Memory Banks Accessed per Memory Operation per Warp (from 0):
0	0	0	0	0	0	0	0	0	0	0	0	0	0	0	0	0	0	0	0	0	0	0	0	0	0	0	0	0	0	0	0	0	0	0	0	0	0	0	0	0	0	0	0	0	0	0	0	0	0	0	0	0	0	0	0	0	0	0	0	0	0	0	0	0	0	0	0	0	0	0	0	0	0	0	0	0	0	0	0	0	0	0	0	0	0	0	0	0	0	0	0	0	0	0	0	0	0	0	0	0	0	0	0	0	0	0	0	0	0	0	0	0	0	0	0	0	0	0	0	0	0	0	0	0	0	0	0	0	0	0	0	0	0	0	0	0	0	0	0	0	0	0	0	0	0	0	0	0	0	0	0	0	0	0	0	0	0	0	0	0	0	0	0	0	0	0	0	0	0	0	0	0	0	0	0	0	0	0	0	0	0	0	0	0	0	0	0	0	0	0	0	
Average # of Memory Banks Accessed per Memory Operation per Warp=-nan

position of mrq chosen
0	0	0	0	0	0	0	0	0	0	0	0	0	0	0	0	0	0	0	0	0	0	0	0	0	0	0	0	0	0	0	0	0	0	0	0	0	0	0	0	0	0	0	0	0	0	0	0	0	0	0	0	0	0	0	0	0	0	0	0	0	0	0	0	

average position of mrq chosen = -nan
Memory Partition 0: 
Cache L2_bank_000:
MSHR contents

Cache L2_bank_001:
MSHR contents

In Dram Latency Queue (total = 0): 
DRAM[0]: 16 bks, busW=2 BL=16 CL=24, tRRD=12 tCCD=4, tRCD=24 tRAS=55 tRP=24 tRC=78
n_cmd=8598247 n_nop=7749588 n_act=238065 n_pre=238049 n_ref_event=0 n_req=403996 n_rd=398441 n_rd_L2_A=0 n_write=0 n_wr_bk=11912 bw_util=0.1909
n_activity=5429936 dram_eff=0.3023
bk0: 25771a 7479177i bk1: 25779a 7483457i bk2: 26091a 7457669i bk3: 26147a 7459559i bk4: 24956a 7531523i bk5: 25101a 7524160i bk6: 24198a 7581225i bk7: 24343a 7580534i bk8: 24887a 7546358i bk9: 24600a 7564698i bk10: 25189a 7523234i bk11: 25107a 7530932i bk12: 23764a 7620983i bk13: 23866a 7613630i bk14: 24289a 7589696i bk15: 24353a 7584651i 

------------------------------------------------------------------------

Row_Buffer_Locality = 0.410729
Row_Buffer_Locality_read = 0.415447
Row_Buffer_Locality_write = 0.072367
Bank_Level_Parallism = 3.515932
Bank_Level_Parallism_Col = 1.824790
Bank_Level_Parallism_Ready = 1.077150
write_to_read_ratio_blp_rw_average = 0.051187
GrpLevelPara = 1.620530 

BW Util details:
bwutil = 0.190901 
total_CMD = 8598247 
util_bw = 1641412 
Wasted_Col = 2598623 
Wasted_Row = 693213 
Idle = 3664999 

BW Util Bottlenecks: 
RCDc_limit = 3632642 
RCDWRc_limit = 42340 
WTRc_limit = 223342 
RTWc_limit = 241013 
CCDLc_limit = 468989 
rwq = 0 
CCDLc_limit_alone = 444831 
WTRc_limit_alone = 215020 
RTWc_limit_alone = 225177 

Commands details: 
total_CMD = 8598247 
n_nop = 7749588 
Read = 398441 
Write = 0 
L2_Alloc = 0 
L2_WB = 11912 
n_act = 238065 
n_pre = 238049 
n_ref = 0 
n_req = 403996 
total_req = 410353 

Dual Bus Interface Util: 
issued_total_row = 476114 
issued_total_col = 410353 
Row_Bus_Util =  0.055373 
CoL_Bus_Util = 0.047725 
Either_Row_CoL_Bus_Util = 0.098701 
Issued_on_Two_Bus_Simul_Util = 0.004397 
issued_two_Eff = 0.044550 
queue_avg = 1.640562 


dram_util_bins: 0 0 0 0 0 0 0 0 0 0
dram_eff_bins: 0 0 0 0 0 0 0 0 0 0
mrqq: max=64 avg=1.64056
Memory Partition 1: 
Cache L2_bank_002:
MSHR contents

Cache L2_bank_003:
MSHR contents

In Dram Latency Queue (total = 0): 
DRAM[1]: 16 bks, busW=2 BL=16 CL=24, tRRD=12 tCCD=4, tRCD=24 tRAS=55 tRP=24 tRC=78
n_cmd=8598247 n_nop=7741380 n_act=241312 n_pre=241296 n_ref_event=0 n_req=407519 n_rd=401851 n_rd_L2_A=0 n_write=0 n_wr_bk=11973 bw_util=0.1925
n_activity=5383939 dram_eff=0.3075
bk0: 25949a 7467639i bk1: 26102a 7452868i bk2: 26442a 7424153i bk3: 26235a 7435754i bk4: 25220a 7502045i bk5: 25040a 7514096i bk6: 24465a 7553182i bk7: 24528a 7561408i bk8: 24956a 7525980i bk9: 24967a 7540581i bk10: 25404a 7499252i bk11: 25123a 7519879i bk12: 24149a 7581760i bk13: 24163a 7588011i bk14: 24724a 7540127i bk15: 24384a 7570892i 

------------------------------------------------------------------------

Row_Buffer_Locality = 0.407856
Row_Buffer_Locality_read = 0.412474
Row_Buffer_Locality_write = 0.080452
Bank_Level_Parallism = 3.601244
Bank_Level_Parallism_Col = 1.000000
Bank_Level_Parallism_Ready = 1.079648
write_to_read_ratio_blp_rw_average = 0.000000
GrpLevelPara = 0.000000 

BW Util details:
bwutil = 0.192516 
total_CMD = 8598247 
util_bw = 1655296 
Wasted_Col = 2593693 
Wasted_Row = 675814 
Idle = 3673444 

BW Util Bottlenecks: 
RCDc_limit = 3659259 
RCDWRc_limit = 42848 
WTRc_limit = 230923 
RTWc_limit = 244737 
CCDLc_limit = 472566 
rwq = 0 
CCDLc_limit_alone = 448125 
WTRc_limit_alone = 222237 
RTWc_limit_alone = 228982 

Commands details: 
total_CMD = 8598247 
n_nop = 7741380 
Read = 401851 
Write = 0 
L2_Alloc = 0 
L2_WB = 11973 
n_act = 241312 
n_pre = 241296 
n_ref = 0 
n_req = 407519 
total_req = 413824 

Dual Bus Interface Util: 
issued_total_row = 482608 
issued_total_col = 413824 
Row_Bus_Util =  0.056129 
CoL_Bus_Util = 0.048129 
Either_Row_CoL_Bus_Util = 0.099656 
Issued_on_Two_Bus_Simul_Util = 0.004602 
issued_two_Eff = 0.046174 
queue_avg = 1.705323 


dram_util_bins: 0 0 0 0 0 0 0 0 0 0
dram_eff_bins: 0 0 0 0 0 0 0 0 0 0
mrqq: max=64 avg=1.70532
Memory Partition 2: 
Cache L2_bank_004:
MSHR contents

Cache L2_bank_005:
MSHR contents

In Dram Latency Queue (total = 0): 
DRAM[2]: 16 bks, busW=2 BL=16 CL=24, tRRD=12 tCCD=4, tRCD=24 tRAS=55 tRP=24 tRC=78
n_cmd=8598247 n_nop=7748626 n_act=238806 n_pre=238790 n_ref_event=0 n_req=404230 n_rd=398588 n_rd_L2_A=0 n_write=0 n_wr_bk=11999 bw_util=0.191
n_activity=5347150 dram_eff=0.3071
bk0: 25789a 7475643i bk1: 25545a 7480200i bk2: 26149a 7441098i bk3: 26199a 7436090i bk4: 24860a 7530278i bk5: 24817a 7526335i bk6: 24348a 7567083i bk7: 24131a 7585967i bk8: 25010a 7539274i bk9: 24829a 7538044i bk10: 25117a 7516013i bk11: 25130a 7521954i bk12: 23908a 7599128i bk13: 23703a 7611699i bk14: 24615a 7556809i bk15: 24438a 7585382i 

------------------------------------------------------------------------

Row_Buffer_Locality = 0.409237
Row_Buffer_Locality_read = 0.413896
Row_Buffer_Locality_write = 0.080113
Bank_Level_Parallism = 3.576821
Bank_Level_Parallism_Col = 1.841297
Bank_Level_Parallism_Ready = 1.079537
write_to_read_ratio_blp_rw_average = 0.052612
GrpLevelPara = 1.630197 

BW Util details:
bwutil = 0.191010 
total_CMD = 8598247 
util_bw = 1642348 
Wasted_Col = 2581646 
Wasted_Row = 668111 
Idle = 3706142 

BW Util Bottlenecks: 
RCDc_limit = 3632011 
RCDWRc_limit = 42473 
WTRc_limit = 230184 
RTWc_limit = 252919 
CCDLc_limit = 470863 
rwq = 0 
CCDLc_limit_alone = 446107 
WTRc_limit_alone = 221705 
RTWc_limit_alone = 236642 

Commands details: 
total_CMD = 8598247 
n_nop = 7748626 
Read = 398588 
Write = 0 
L2_Alloc = 0 
L2_WB = 11999 
n_act = 238806 
n_pre = 238790 
n_ref = 0 
n_req = 404230 
total_req = 410587 

Dual Bus Interface Util: 
issued_total_row = 477596 
issued_total_col = 410587 
Row_Bus_Util =  0.055546 
CoL_Bus_Util = 0.047752 
Either_Row_CoL_Bus_Util = 0.098813 
Issued_on_Two_Bus_Simul_Util = 0.004485 
issued_two_Eff = 0.045387 
queue_avg = 1.658628 


dram_util_bins: 0 0 0 0 0 0 0 0 0 0
dram_eff_bins: 0 0 0 0 0 0 0 0 0 0
mrqq: max=64 avg=1.65863
Memory Partition 3: 
Cache L2_bank_006:
MSHR contents

Cache L2_bank_007:
MSHR contents

In Dram Latency Queue (total = 0): 
DRAM[3]: 16 bks, busW=2 BL=16 CL=24, tRRD=12 tCCD=4, tRCD=24 tRAS=55 tRP=24 tRC=78
n_cmd=8598247 n_nop=7749021 n_act=238872 n_pre=238856 n_ref_event=0 n_req=404063 n_rd=398333 n_rd_L2_A=0 n_write=0 n_wr_bk=12075 bw_util=0.1909
n_activity=5363329 dram_eff=0.3061
bk0: 25689a 7475956i bk1: 25985a 7451084i bk2: 26117a 7436279i bk3: 26348a 7424251i bk4: 24730a 7522949i bk5: 24978a 7520389i bk6: 24257a 7582236i bk7: 24281a 7574325i bk8: 24718a 7551346i bk9: 25023a 7531338i bk10: 25003a 7520641i bk11: 24724a 7547128i bk12: 23995a 7585170i bk13: 23812a 7625236i bk14: 24370a 7573706i bk15: 24303a 7575163i 

------------------------------------------------------------------------

Row_Buffer_Locality = 0.408830
Row_Buffer_Locality_read = 0.413654
Row_Buffer_Locality_write = 0.073473
Bank_Level_Parallism = 3.583516
Bank_Level_Parallism_Col = 1.843441
Bank_Level_Parallism_Ready = 1.080265
write_to_read_ratio_blp_rw_average = 0.052553
GrpLevelPara = 1.632973 

BW Util details:
bwutil = 0.190926 
total_CMD = 8598247 
util_bw = 1641632 
Wasted_Col = 2578047 
Wasted_Row = 668519 
Idle = 3710049 

BW Util Bottlenecks: 
RCDc_limit = 3627805 
RCDWRc_limit = 43286 
WTRc_limit = 231959 
RTWc_limit = 254530 
CCDLc_limit = 468879 
rwq = 0 
CCDLc_limit_alone = 443255 
WTRc_limit_alone = 223071 
RTWc_limit_alone = 237794 

Commands details: 
total_CMD = 8598247 
n_nop = 7749021 
Read = 398333 
Write = 0 
L2_Alloc = 0 
L2_WB = 12075 
n_act = 238872 
n_pre = 238856 
n_ref = 0 
n_req = 404063 
total_req = 410408 

Dual Bus Interface Util: 
issued_total_row = 477728 
issued_total_col = 410408 
Row_Bus_Util =  0.055561 
CoL_Bus_Util = 0.047732 
Either_Row_CoL_Bus_Util = 0.098767 
Issued_on_Two_Bus_Simul_Util = 0.004525 
issued_two_Eff = 0.045818 
queue_avg = 1.672822 


dram_util_bins: 0 0 0 0 0 0 0 0 0 0
dram_eff_bins: 0 0 0 0 0 0 0 0 0 0
mrqq: max=64 avg=1.67282
Memory Partition 4: 
Cache L2_bank_008:
MSHR contents

Cache L2_bank_009:
MSHR contents

In Dram Latency Queue (total = 0): 
DRAM[4]: 16 bks, busW=2 BL=16 CL=24, tRRD=12 tCCD=4, tRCD=24 tRAS=55 tRP=24 tRC=78
n_cmd=8598247 n_nop=7747278 n_act=239502 n_pre=239486 n_ref_event=0 n_req=404909 n_rd=399300 n_rd_L2_A=0 n_write=0 n_wr_bk=11937 bw_util=0.1913
n_activity=5375376 dram_eff=0.306
bk0: 25651a 7481103i bk1: 25713a 7466997i bk2: 26038a 7449100i bk3: 26220a 7437815i bk4: 25146a 7509480i bk5: 25088a 7512997i bk6: 24424a 7556519i bk7: 24293a 7574460i bk8: 25130a 7508268i bk9: 24815a 7534297i bk10: 25222a 7513379i bk11: 25115a 7524814i bk12: 24014a 7592225i bk13: 23678a 7618421i bk14: 24550a 7555843i bk15: 24203a 7589010i 

------------------------------------------------------------------------

Row_Buffer_Locality = 0.408509
Row_Buffer_Locality_read = 0.413198
Row_Buffer_Locality_write = 0.074701
Bank_Level_Parallism = 3.586463
Bank_Level_Parallism_Col = 1.837496
Bank_Level_Parallism_Ready = 1.078353
write_to_read_ratio_blp_rw_average = 0.051585
GrpLevelPara = 1.629477 

BW Util details:
bwutil = 0.191312 
total_CMD = 8598247 
util_bw = 1644948 
Wasted_Col = 2586565 
Wasted_Row = 673332 
Idle = 3693402 

BW Util Bottlenecks: 
RCDc_limit = 3640143 
RCDWRc_limit = 42393 
WTRc_limit = 224982 
RTWc_limit = 245798 
CCDLc_limit = 470645 
rwq = 0 
CCDLc_limit_alone = 446522 
WTRc_limit_alone = 216833 
RTWc_limit_alone = 229824 

Commands details: 
total_CMD = 8598247 
n_nop = 7747278 
Read = 399300 
Write = 0 
L2_Alloc = 0 
L2_WB = 11937 
n_act = 239502 
n_pre = 239486 
n_ref = 0 
n_req = 404909 
total_req = 411237 

Dual Bus Interface Util: 
issued_total_row = 478988 
issued_total_col = 411237 
Row_Bus_Util =  0.055708 
CoL_Bus_Util = 0.047828 
Either_Row_CoL_Bus_Util = 0.098970 
Issued_on_Two_Bus_Simul_Util = 0.004566 
issued_two_Eff = 0.046131 
queue_avg = 1.673840 


dram_util_bins: 0 0 0 0 0 0 0 0 0 0
dram_eff_bins: 0 0 0 0 0 0 0 0 0 0
mrqq: max=64 avg=1.67384
Memory Partition 5: 
Cache L2_bank_010:
MSHR contents

Cache L2_bank_011:
MSHR contents

In Dram Latency Queue (total = 0): 
DRAM[5]: 16 bks, busW=2 BL=16 CL=24, tRRD=12 tCCD=4, tRCD=24 tRAS=55 tRP=24 tRC=78
n_cmd=8598247 n_nop=7754144 n_act=237121 n_pre=237105 n_ref_event=0 n_req=401990 n_rd=396411 n_rd_L2_A=0 n_write=0 n_wr_bk=11888 bw_util=0.1899
n_activity=5283162 dram_eff=0.3091
bk0: 25682a 7483349i bk1: 25576a 7478588i bk2: 25883a 7463661i bk3: 26089a 7444237i bk4: 24782a 7534707i bk5: 24643a 7536454i bk6: 24038a 7580996i bk7: 24115a 7581495i bk8: 24527a 7547283i bk9: 24864a 7537292i bk10: 24985a 7522295i bk11: 25102a 7515701i bk12: 23755a 7600203i bk13: 23876a 7595781i bk14: 24406a 7569216i bk15: 24088a 7589506i 

------------------------------------------------------------------------

Row_Buffer_Locality = 0.410137
Row_Buffer_Locality_read = 0.414840
Row_Buffer_Locality_write = 0.075999
Bank_Level_Parallism = 3.603245
[...]

Row_Buffer_Locality = 0.399508
Row_Buffer_Locality_read = 0.401346
Row_Buffer_Locality_write = 0.073806
Bank_Level_Parallism = 3.844296
Bank_Level_Parallism_Col = 1.825402
Bank_Level_Parallism_Ready = 1.068900
write_to_read_ratio_blp_rw_average = 0.022029
GrpLevelPara = 1.627685 

BW Util details:
bwutil = 0.208301 
total_CMD = 23320563 
util_bw = 4857688 
Wasted_Col = 7372416 
Wasted_Row = 1764437 
Idle = 9326022 

BW Util Bottlenecks: 
RCDc_limit = 10903834 
RCDWRc_limit = 50993 
WTRc_limit = 297323 
RTWc_limit = 307731 
CCDLc_limit = 1345579 
rwq = 0 
CCDLc_limit_alone = 1313560 
WTRc_limit_alone = 285181 
RTWc_limit_alone = 287854 

Commands details: 
total_CMD = 23320563 
n_nop = 20794174 
Read = 1198081 
Write = 0 
L2_Alloc = 0 
L2_WB = 16341 
n_act = 723500 
n_pre = 723484 
n_ref = 0 
n_req = 1204842 
total_req = 1214422 

Dual Bus Interface Util: 
issued_total_row = 1446984 
issued_total_col = 1214422 
Row_Bus_Util =  0.062048 
CoL_Bus_Util = 0.052075 
Either_Row_CoL_Bus_Util = 0.108333 
Issued_on_Two_Bus_Simul_Util = 0.005790 
issued_two_Eff = 0.053443 
queue_avg = 1.901431 


dram_util_bins: 0 0 0 0 0 0 0 0 0 0
dram_eff_bins: 0 0 0 0 0 0 0 0 0 0
mrqq: max=64 avg=1.90143
Memory Partition 7: 
Cache L2_bank_014:
MSHR contents

Cache L2_bank_015:
MSHR contents

In Dram Latency Queue (total = 0): 
DRAM[7]: 16 bks, busW=2 BL=16 CL=24, tRRD=12 tCCD=4, tRCD=24 tRAS=55 tRP=24 tRC=78
n_cmd=23320563 n_nop=20783016 n_act=729426 n_pre=729410 n_ref_event=0 n_req=1210719 n_rd=1203918 n_rd_L2_A=0 n_write=0 n_wr_bk=16471 bw_util=0.2093
n_activity=15044171 dram_eff=0.3245
bk0: 78216a 19803184i bk1: 78678a 19727306i bk2: 78711a 19734212i bk3: 79742a 19689132i bk4: 74958a 19972928i bk5: 75445a 19966783i bk6: 72856a 20098377i bk7: 73188a 20109554i bk8: 75510a 19938380i bk9: 74888a 20000065i bk10: 75188a 19972486i bk11: 75974a 19932650i bk12: 72362a 20145484i bk13: 71768a 20219645i bk14: 73615a 20089713i bk15: 72819a 20162034i 

------------------------------------------------------------------------

Row_Buffer_Locality = 0.397528
Row_Buffer_Locality_read = 0.399359
Row_Buffer_Locality_write = 0.073519
Bank_Level_Parallism = 3.939225
Bank_Level_Parallism_Col = 1.836395
Bank_Level_Parallism_Ready = 1.068196
write_to_read_ratio_blp_rw_average = 0.022381
GrpLevelPara = 1.637289 

BW Util details:
bwutil = 0.209324 
total_CMD = 23320563 
util_bw = 4881556 
Wasted_Col = 7347941 
Wasted_Row = 1695293 
Idle = 9395773 

BW Util Bottlenecks: 
RCDc_limit = 10939072 
RCDWRc_limit = 51314 
WTRc_limit = 293874 
RTWc_limit = 313227 
CCDLc_limit = 1356584 
rwq = 0 
CCDLc_limit_alone = 1324512 
WTRc_limit_alone = 282211 
RTWc_limit_alone = 292818 

Commands details: 
total_CMD = 23320563 
n_nop = 20783016 
Read = 1203918 
Write = 0 
L2_Alloc = 0 
L2_WB = 16471 
n_act = 729426 
n_pre = 729410 
n_ref = 0 
n_req = 1210719 
total_req = 1220389 

Dual Bus Interface Util: 
issued_total_row = 1458836 
issued_total_col = 1220389 
Row_Bus_Util =  0.062556 
CoL_Bus_Util = 0.052331 
Either_Row_CoL_Bus_Util = 0.108812 
Issued_on_Two_Bus_Simul_Util = 0.006075 
issued_two_Eff = 0.055833 
queue_avg = 1.996507 


dram_util_bins: 0 0 0 0 0 0 0 0 0 0
dram_eff_bins: 0 0 0 0 0 0 0 0 0 0
mrqq: max=64 avg=1.99651
Memory Partition 8: 
Cache L2_bank_016:
MSHR contents

Cache L2_bank_017:
MSHR contents

In Dram Latency Queue (total = 0): 
DRAM[8]: 16 bks, busW=2 BL=16 CL=24, tRRD=12 tCCD=4, tRCD=24 tRAS=55 tRP=24 tRC=78
n_cmd=23320563 n_nop=20802395 n_act=721388 n_pre=721372 n_ref_event=0 n_req=1203084 n_rd=1196430 n_rd_L2_A=0 n_write=0 n_wr_bk=16187 bw_util=0.208
n_activity=14994389 dram_eff=0.3235
bk0: 78060a 19815698i bk1: 77295a 19879176i bk2: 78620a 19760100i bk3: 77647a 19840506i bk4: 75181a 19985733i bk5: 74828a 20044986i bk6: 73459a 20109537i bk7: 72034a 20217590i bk8: 74761a 20004319i bk9: 74392a 20083857i bk10: 75935a 19954926i bk11: 75808a 19977041i bk12: 71496a 20228852i bk13: 71154a 20278607i bk14: 73300a 20138142i bk15: 72460a 20204982i 

------------------------------------------------------------------------

Row_Buffer_Locality = 0.400386
Row_Buffer_Locality_read = 0.402250
Row_Buffer_Locality_write = 0.065224
Bank_Level_Parallism = 3.890434
Bank_Level_Parallism_Col = 1.830094
Bank_Level_Parallism_Ready = 1.068703
write_to_read_ratio_blp_rw_average = 0.021421
GrpLevelPara = 1.633386 

BW Util details:
bwutil = 0.207991 
total_CMD = 23320563 
util_bw = 4850468 
Wasted_Col = 7296892 
Wasted_Row = 1705742 
Idle = 9467461 

BW Util Bottlenecks: 
RCDc_limit = 10830975 
RCDWRc_limit = 50455 
WTRc_limit = 293046 
RTWc_limit = 293233 
CCDLc_limit = 1346302 
rwq = 0 
CCDLc_limit_alone = 1315712 
WTRc_limit_alone = 280908 
RTWc_limit_alone = 274781 

Commands details: 
total_CMD = 23320563 
n_nop = 20802395 
Read = 1196430 
Write = 0 
L2_Alloc = 0 
L2_WB = 16187 
n_act = 721388 
n_pre = 721372 
n_ref = 0 
n_req = 1203084 
total_req = 1212617 

Dual Bus Interface Util: 
issued_total_row = 1442760 
issued_total_col = 1212617 
Row_Bus_Util =  0.061866 
CoL_Bus_Util = 0.051998 
Either_Row_CoL_Bus_Util = 0.107981 
Issued_on_Two_Bus_Simul_Util = 0.005884 
issued_two_Eff = 0.054488 
queue_avg = 1.933940 


dram_util_bins: 0 0 0 0 0 0 0 0 0 0
dram_eff_bins: 0 0 0 0 0 0 0 0 0 0
mrqq: max=64 avg=1.93394
Memory Partition 9: 
Cache L2_bank_018:
MSHR contents

Cache L2_bank_019:
MSHR contents

In Dram Latency Queue (total = 0): 
DRAM[9]: 16 bks, busW=2 BL=16 CL=24, tRRD=12 tCCD=4, tRCD=24 tRAS=55 tRP=24 tRC=78
n_cmd=23320563 n_nop=20798876 n_act=723252 n_pre=723236 n_ref_event=0 n_req=1204384 n_rd=1197658 n_rd_L2_A=0 n_write=0 n_wr_bk=16280 bw_util=0.2082
n_activity=15059359 dram_eff=0.3224
bk0: 77009a 19836959i bk1: 77649a 19816210i bk2: 79039a 19748476i bk3: 79023a 19720953i bk4: 75294a 19956092i bk5: 74514a 20028487i bk6: 72457a 20160091i bk7: 72910a 20139703i bk8: 74117a 20045299i bk9: 74458a 20053173i bk10: 75945a 19951911i bk11: 75314a 19994198i bk12: 71112a 20266434i bk13: 71367a 20253268i bk14: 74312a 20054160i bk15: 73138a 20122914i 

------------------------------------------------------------------------

Row_Buffer_Locality = 0.399486
Row_Buffer_Locality_read = 0.401284
Row_Buffer_Locality_write = 0.079245
Bank_Level_Parallism = 3.915060
Bank_Level_Parallism_Col = 1.835259
Bank_Level_Parallism_Ready = 1.068454
write_to_read_ratio_blp_rw_average = 0.022562
GrpLevelPara = 1.635948 

BW Util details:
bwutil = 0.208218 
total_CMD = 23320563 
util_bw = 4855752 
Wasted_Col = 7300895 
Wasted_Row = 1707771 
Idle = 9456145 

BW Util Bottlenecks: 
RCDc_limit = 10849778 
RCDWRc_limit = 50123 
WTRc_limit = 299041 
RTWc_limit = 313668 
CCDLc_limit = 1345808 
rwq = 0 
CCDLc_limit_alone = 1313346 
WTRc_limit_alone = 287364 
RTWc_limit_alone = 292883 

Commands details: 
total_CMD = 23320563 
n_nop = 20798876 
Read = 1197658 
Write = 0 
L2_Alloc = 0 
L2_WB = 16280 
n_act = 723252 
n_pre = 723236 
n_ref = 0 
n_req = 1204384 
total_req = 1213938 

Dual Bus Interface Util: 
issued_total_row = 1446488 
issued_total_col = 1213938 
Row_Bus_Util =  0.062026 
CoL_Bus_Util = 0.052054 
Either_Row_CoL_Bus_Util = 0.108131 
Issued_on_Two_Bus_Simul_Util = 0.005949 
issued_two_Eff = 0.055018 
queue_avg = 1.955317 


dram_util_bins: 0 0 0 0 0 0 0 0 0 0
dram_eff_bins: 0 0 0 0 0 0 0 0 0 0
mrqq: max=64 avg=1.95532
Memory Partition 10: 
Cache L2_bank_020:
MSHR contents

Cache L2_bank_021:
MSHR contents

In Dram Latency Queue (total = 0): 
DRAM[10]: 16 bks, busW=2 BL=16 CL=24, tRRD=12 tCCD=4, tRCD=24 tRAS=55 tRP=24 tRC=78
n_cmd=23320563 n_nop=20795936 n_act=723851 n_pre=723835 n_ref_event=0 n_req=1205286 n_rd=1198511 n_rd_L2_A=0 n_write=0 n_wr_bk=16274 bw_util=0.2084
n_activity=15087559 dram_eff=0.3221
bk0: 77980a 19799443i bk1: 76542a 19909087i bk2: 79450a 19695755i bk3: 78879a 19761502i bk4: 75289a 19965527i bk5: 74789a 20042818i bk6: 73425a 20105273i bk7: 72245a 20213958i bk8: 75045a 20018579i bk9: 73521a 20112043i bk10: 75303a 20002460i bk11: 74875a 20028676i bk12: 72319a 20185019i bk13: 71387a 20279945i bk14: 74386a 20056239i bk15: 73076a 20168257i 

------------------------------------------------------------------------

Row_Buffer_Locality = 0.399438
Row_Buffer_Locality_read = 0.401277
Row_Buffer_Locality_write = 0.074096
Bank_Level_Parallism = 3.885584
Bank_Level_Parallism_Col = 1.830550
Bank_Level_Parallism_Ready = 1.068369
write_to_read_ratio_blp_rw_average = 0.022030
GrpLevelPara = 1.632410 

BW Util details:
bwutil = 0.208363 
total_CMD = 23320563 
util_bw = 4859140 
Wasted_Col = 7334408 
Wasted_Row = 1723279 
Idle = 9403736 

BW Util Bottlenecks: 
RCDc_limit = 10879097 
RCDWRc_limit = 51067 
WTRc_limit = 294657 
RTWc_limit = 306190 
CCDLc_limit = 1348619 
rwq = 0 
CCDLc_limit_alone = 1316534 
WTRc_limit_alone = 282751 
RTWc_limit_alone = 286011 

Commands details: 
total_CMD = 23320563 
n_nop = 20795936 
Read = 1198511 
Write = 0 
L2_Alloc = 0 
L2_WB = 16274 
n_act = 723851 
n_pre = 723835 
n_ref = 0 
n_req = 1205286 
total_req = 1214785 

Dual Bus Interface Util: 
issued_total_row = 1447686 
issued_total_col = 1214785 
Row_Bus_Util =  0.062078 
CoL_Bus_Util = 0.052091 
Either_Row_CoL_Bus_Util = 0.108258 
Issued_on_Two_Bus_Simul_Util = 0.005911 
issued_two_Eff = 0.054600 
queue_avg = 1.941761 


dram_util_bins: 0 0 0 0 0 0 0 0 0 0
dram_eff_bins: 0 0 0 0 0 0 0 0 0 0
mrqq: max=64 avg=1.94176
Memory Partition 11: 
Cache L2_bank_022:
MSHR contents

Cache L2_bank_023:
MSHR contents

In Dram Latency Queue (total = 0): 
DRAM[11]: 16 bks, busW=2 BL=16 CL=24, tRRD=12 tCCD=4, tRCD=24 tRAS=55 tRP=24 tRC=78
n_cmd=23320563 n_nop=20816392 n_act=717150 n_pre=717134 n_ref_event=0 n_req=1196450 n_rd=1189683 n_rd_L2_A=0 n_write=0 n_wr_bk=16399 bw_util=0.2069
n_activity=14885170 dram_eff=0.3241
bk0: 77099a 19878617i bk1: 77827a 19819699i bk2: 77960a 19830382i bk3: 77855a 19821806i bk4: 73568a 20084747i bk5: 74353a 20056475i bk6: 71505a 20232431i bk7: 72423a 20176042i bk8: 73480a 20101951i bk9: 74647a 20050138i bk10: 74468a 20046451i bk11: 75104a 20013390i bk12: 70986a 20291715i bk13: 71810a 20242166i bk14: 73768a 20102450i bk15: 72830a 20173256i 

------------------------------------------------------------------------

Row_Buffer_Locality = 0.400603
Row_Buffer_Locality_read = 0.402483
Row_Buffer_Locality_write = 0.070194
Bank_Level_Parallism = 3.887963
Bank_Level_Parallism_Col = 1.832836
Bank_Level_Parallism_Ready = 1.068798
write_to_read_ratio_blp_rw_average = 0.022102
GrpLevelPara = 1.633791 

BW Util details:
bwutil = 0.206870 
total_CMD = 23320563 
util_bw = 4824328 
Wasted_Col = 7247612 
Wasted_Row = 1683435 
Idle = 9565188 

BW Util Bottlenecks: 
RCDc_limit = 10758122 
RCDWRc_limit = 50932 
WTRc_limit = 296075 
RTWc_limit = 302412 
CCDLc_limit = 1341748 
rwq = 0 
CCDLc_limit_alone = 1309853 
WTRc_limit_alone = 283918 
RTWc_limit_alone = 282674 

Commands details: 
total_CMD = 23320563 
n_nop = 20816392 
Read = 1189683 
Write = 0 
L2_Alloc = 0 
L2_WB = 16399 
n_act = 717150 
n_pre = 717134 
n_ref = 0 
n_req = 1196450 
total_req = 1206082 

Dual Bus Interface Util: 
issued_total_row = 1434284 
issued_total_col = 1206082 
Row_Bus_Util =  0.061503 
CoL_Bus_Util = 0.051718 
Either_Row_CoL_Bus_Util = 0.107380 
Issued_on_Two_Bus_Simul_Util = 0.005840 
issued_two_Eff = 0.054387 
queue_avg = 1.921349 


dram_util_bins: 0 0 0 0 0 0 0 0 0 0
dram_eff_bins: 0 0 0 0 0 0 0 0 0 0
mrqq: max=64 avg=1.92135

========= L2 cache stats =========
L2_cache_bank[0]: Access = 3081416, Miss = 598160, Miss_rate = 0.194, Pending_hits = 1095, Reservation_fails = 0
L2_cache_bank[1]: Access = 3096343, Miss = 597476, Miss_rate = 0.193, Pending_hits = 974, Reservation_fails = 0
L2_cache_bank[2]: Access = 3194689, Miss = 603841, Miss_rate = 0.189, Pending_hits = 983, Reservation_fails = 0
L2_cache_bank[3]: Access = 3097911, Miss = 601349, Miss_rate = 0.194, Pending_hits = 911, Reservation_fails = 0
L2_cache_bank[4]: Access = 3201464, Miss = 599835, Miss_rate = 0.187, Pending_hits = 1019, Reservation_fails = 0
L2_cache_bank[5]: Access = 3286773, Miss = 598789, Miss_rate = 0.182, Pending_hits = 940, Reservation_fails = 0
L2_cache_bank[6]: Access = 3137907, Miss = 597082, Miss_rate = 0.190, Pending_hits = 1032, Reservation_fails = 0
L2_cache_bank[7]: Access = 3099134, Miss = 597718, Miss_rate = 0.193, Pending_hits = 912, Reservation_fails = 0
L2_cache_bank[8]: Access = 3179073, Miss = 601505, Miss_rate = 0.189, Pending_hits = 974, Reservation_fails = 0
L2_cache_bank[9]: Access = 3043693, Miss = 597313, Miss_rate = 0.196, Pending_hits = 973, Reservation_fails = 0
L2_cache_bank[10]: Access = 3131474, Miss = 594439, Miss_rate = 0.190, Pending_hits = 953, Reservation_fails = 0
L2_cache_bank[11]: Access = 3153572, Miss = 595303, Miss_rate = 0.189, Pending_hits = 966, Reservation_fails = 0
L2_cache_bank[12]: Access = 3296618, Miss = 597341, Miss_rate = 0.181, Pending_hits = 1026, Reservation_fails = 0
L2_cache_bank[13]: Access = 3110182, Miss = 600752, Miss_rate = 0.193, Pending_hits = 957, Reservation_fails = 0
L2_cache_bank[14]: Access = 3170600, Miss = 601427, Miss_rate = 0.190, Pending_hits = 1000, Reservation_fails = 0
L2_cache_bank[15]: Access = 3232016, Miss = 602507, Miss_rate = 0.186, Pending_hits = 917, Reservation_fails = 0
L2_cache_bank[16]: Access = 3183854, Miss = 600821, Miss_rate = 0.189, Pending_hits = 1032, Reservation_fails = 0
L2_cache_bank[17]: Access = 3169116, Miss = 595625, Miss_rate = 0.188, Pending_hits = 950, Reservation_fails = 0
L2_cache_bank[18]: Access = 3396018, Miss = 599288, Miss_rate = 0.176, Pending_hits = 1075, Reservation_fails = 0
L2_cache_bank[19]: Access = 3178374, Miss = 598379, Miss_rate = 0.188, Pending_hits = 967, Reservation_fails = 0
L2_cache_bank[20]: Access = 3172803, Miss = 603200, Miss_rate = 0.190, Pending_hits = 909, Reservation_fails = 0
L2_cache_bank[21]: Access = 3007741, Miss = 595320, Miss_rate = 0.198, Pending_hits = 899, Reservation_fails = 0
L2_cache_bank[22]: Access = 3054710, Miss = 592841, Miss_rate = 0.194, Pending_hits = 884, Reservation_fails = 0
L2_cache_bank[23]: Access = 3147236, Miss = 596858, Miss_rate = 0.190, Pending_hits = 1091, Reservation_fails = 0
L2_total_cache_accesses = 75822717
L2_total_cache_misses = 14367169
L2_total_cache_miss_rate = 0.1895
L2_total_cache_pending_hits = 23439
L2_total_cache_reservation_fails = 0
L2_total_cache_breakdown:
	L2_cache_stats_breakdown[GLOBAL_ACC_R][HIT] = 60809500
	L2_cache_stats_breakdown[GLOBAL_ACC_R][HIT_RESERVED] = 23437
	L2_cache_stats_breakdown[GLOBAL_ACC_R][MISS] = 5285449
	L2_cache_stats_breakdown[GLOBAL_ACC_R][RESERVATION_FAIL] = 0
	L2_cache_stats_breakdown[GLOBAL_ACC_R][SECTOR_MISS] = 9081568
	L2_cache_stats_breakdown[GLOBAL_ACC_R][MSHR_HIT] = 23437
	L2_cache_stats_breakdown[LOCAL_ACC_R][HIT] = 0
	L2_cache_stats_breakdown[LOCAL_ACC_R][HIT_RESERVED] = 0
	L2_cache_stats_breakdown[LOCAL_ACC_R][MISS] = 0
	L2_cache_stats_breakdown[LOCAL_ACC_R][RESERVATION_FAIL] = 0
	L2_cache_stats_breakdown[LOCAL_ACC_R][SECTOR_MISS] = 0
	L2_cache_stats_breakdown[LOCAL_ACC_R][MSHR_HIT] = 0
	L2_cache_stats_breakdown[CONST_ACC_R][HIT] = 0
	L2_cache_stats_breakdown[CONST_ACC_R][HIT_RESERVED] = 0
	L2_cache_stats_breakdown[CONST_ACC_R][MISS] = 0
	L2_cache_stats_breakdown[CONST_ACC_R][RESERVATION_FAIL] = 0
	L2_cache_stats_breakdown[CONST_ACC_R][SECTOR_MISS] = 0
	L2_cache_stats_breakdown[CONST_ACC_R][MSHR_HIT] = 0
	L2_cache_stats_breakdown[TEXTURE_ACC_R][HIT] = 0
	L2_cache_stats_breakdown[TEXTURE_ACC_R][HIT_RESERVED] = 0
	L2_cache_stats_breakdown[TEXTURE_ACC_R][MISS] = 0
	L2_cache_stats_breakdown[TEXTURE_ACC_R][RESERVATION_FAIL] = 0
	L2_cache_stats_breakdown[TEXTURE_ACC_R][SECTOR_MISS] = 0
	L2_cache_stats_breakdown[TEXTURE_ACC_R][MSHR_HIT] = 0
	L2_cache_stats_breakdown[GLOBAL_ACC_W][HIT] = 622609
	L2_cache_stats_breakdown[GLOBAL_ACC_W][HIT_RESERVED] = 2
	L2_cache_stats_breakdown[GLOBAL_ACC_W][MISS] = 50
	L2_cache_stats_breakdown[GLOBAL_ACC_W][RESERVATION_FAIL] = 0
	L2_cache_stats_breakdown[GLOBAL_ACC_W][SECTOR_MISS] = 102
	L2_cache_stats_breakdown[GLOBAL_ACC_W][MSHR_HIT] = 0
	L2_cache_stats_breakdown[LOCAL_ACC_W][HIT] = 0
	L2_cache_stats_breakdown[LOCAL_ACC_W][HIT_RESERVED] = 0
	L2_cache_stats_breakdown[LOCAL_ACC_W][MISS] = 0
	L2_cache_stats_breakdown[LOCAL_ACC_W][RESERVATION_FAIL] = 0
	L2_cache_stats_breakdown[LOCAL_ACC_W][SECTOR_MISS] = 0
	L2_cache_stats_breakdown[LOCAL_ACC_W][MSHR_HIT] = 0
	L2_cache_stats_breakdown[L1_WRBK_ACC][HIT] = 0
	L2_cache_stats_breakdown[L1_WRBK_ACC][HIT_RESERVED] = 0
	L2_cache_stats_breakdown[L1_WRBK_ACC][MISS] = 0
	L2_cache_stats_breakdown[L1_WRBK_ACC][RESERVATION_FAIL] = 0
	L2_cache_stats_breakdown[L1_WRBK_ACC][SECTOR_MISS] = 0
	L2_cache_stats_breakdown[L1_WRBK_ACC][MSHR_HIT] = 0
	L2_cache_stats_breakdown[L2_WRBK_ACC][HIT] = 0
	L2_cache_stats_breakdown[L2_WRBK_ACC][HIT_RESERVED] = 0
	L2_cache_stats_breakdown[L2_WRBK_ACC][MISS] = 0
	L2_cache_stats_breakdown[L2_WRBK_ACC][RESERVATION_FAIL] = 0
	L2_cache_stats_breakdown[L2_WRBK_ACC][SECTOR_MISS] = 0
	L2_cache_stats_breakdown[L2_WRBK_ACC][MSHR_HIT] = 0
	L2_cache_stats_breakdown[INST_ACC_R][HIT] = 0
	L2_cache_stats_breakdown[INST_ACC_R][HIT_RESERVED] = 0
	L2_cache_stats_breakdown[INST_ACC_R][MISS] = 0
	L2_cache_stats_breakdown[INST_ACC_R][RESERVATION_FAIL] = 0
	L2_cache_stats_breakdown[INST_ACC_R][SECTOR_MISS] = 0
	L2_cache_stats_breakdown[INST_ACC_R][MSHR_HIT] = 0
	L2_cache_stats_breakdown[L1_WR_ALLOC_R][HIT] = 0
	L2_cache_stats_breakdown[L1_WR_ALLOC_R][HIT_RESERVED] = 0
	L2_cache_stats_breakdown[L1_WR_ALLOC_R][MISS] = 0
	L2_cache_stats_breakdown[L1_WR_ALLOC_R][RESERVATION_FAIL] = 0
	L2_cache_stats_breakdown[L1_WR_ALLOC_R][SECTOR_MISS] = 0
	L2_cache_stats_breakdown[L1_WR_ALLOC_R][MSHR_HIT] = 0
	L2_cache_stats_breakdown[L2_WR_ALLOC_R][HIT] = 0
	L2_cache_stats_breakdown[L2_WR_ALLOC_R][HIT_RESERVED] = 0
	L2_cache_stats_breakdown[L2_WR_ALLOC_R][MISS] = 0
	L2_cache_stats_breakdown[L2_WR_ALLOC_R][RESERVATION_FAIL] = 0
	L2_cache_stats_breakdown[L2_WR_ALLOC_R][SECTOR_MISS] = 0
	L2_cache_stats_breakdown[L2_WR_ALLOC_R][MSHR_HIT] = 0
	L2_cache_stats_breakdown[GLOBAL_ACC_R][TOTAL_ACCESS] = 75199954
	L2_cache_stats_breakdown[GLOBAL_ACC_W][TOTAL_ACCESS] = 622763
L2_total_cache_reservation_fail_breakdown:
L2_cache_data_port_util = 0.281
L2_cache_fill_port_util = 0.066

icnt_total_pkts_mem_to_simt=75822717
icnt_total_pkts_simt_to_mem=75822717
LD_mem_lat_dist  0 0 0 0 0 0 0 0 0 0 0 0 0 0 0 0 0 0 0 0 0 0 0 0 0 0 0
ST_mem_lat_dist  0 0 0 0 0 0 0 0 0 0 0 0 0 0 0 0 0 0 0 0 0 0 0 0 0 0 0
----------------------------Interconnect-DETAILS--------------------------------
Req_Network_injected_packets_num = 75822717
Req_Network_cycles = 9093725
Req_Network_injected_packets_per_cycle =       8.3379 
Req_Network_conflicts_per_cycle =       6.4220
Req_Network_conflicts_per_cycle_util =       9.2315
Req_Bank_Level_Parallism =      11.9856
Req_Network_in_buffer_full_per_cycle =       0.0000
Req_Network_in_buffer_avg_util =      30.8555
Req_Network_out_buffer_full_per_cycle =       0.0000
Req_Network_out_buffer_avg_util =       0.3474

Reply_Network_injected_packets_num = 75822717
Reply_Network_cycles = 9093725
Reply_Network_injected_packets_per_cycle =        8.3379
Reply_Network_conflicts_per_cycle =        4.9452
Reply_Network_conflicts_per_cycle_util =       7.1053
Reply_Bank_Level_Parallism =      11.9799
Reply_Network_in_buffer_full_per_cycle =       0.0000
Reply_Network_in_buffer_avg_util =       2.9718
Reply_Network_out_buffer_full_per_cycle =       0.0000
Reply_Network_out_buffer_avg_util =       0.2779
----------------------------END-of-Interconnect-DETAILS-------------------------


gpgpu_simulation_time = 0 days, 17 hrs, 18 min, 24 sec (62304 sec)
gpgpu_simulation_rate = 25116 (inst/sec)
gpgpu_simulation_rate = 145 (cycle/sec)
gpgpu_silicon_slowdown = 9413793x
GPGPU-Sim: synchronize waiting for inactive GPU simulation
GPGPU-Sim API: Stream Manager State
GPGPU-Sim: detected inactive GPU simulation thread
	iterations = 3.
	runtime [cuda_warp] = 62264174.978000 ms.
Verifying...
	runtime [serial] = 293.043000 ms.
Correct
GPGPU-Sim: *** exit detected ***
