

        *** GPGPU-Sim Simulator Version 4.2.0  [build gpgpu-sim_git-commit-5e9d31b8132651796656877ecb58fde27177ba7a_modified_303.0] ***


GPGPU-Sim PTX: simulation mode 0 (can change with PTX_SIM_MODE_FUNC environment variable:
               1=functional simulation only, 0=detailed performance simulator)
GPGPU-Sim PTX: overriding embedded ptx with ptx file (PTX_SIM_USE_PTX_FILE is set)
GPGPU-Sim: Configuration options:

-save_embedded_ptx                      0 # saves ptx files embedded in binary as <n>.ptx
-keep                                   0 # keep intermediate files created by GPGPU-Sim when interfacing with external programs
-gpgpu_ptx_save_converted_ptxplus                    0 # Saved converted ptxplus to a file
-gpgpu_occupancy_sm_number                   75 # The SM number to pass to ptxas when getting register usage for computing GPU occupancy. This parameter is required in the config.
-ptx_opcode_latency_int           4,4,4,4,21 # Opcode latencies for integers <ADD,MAX,MUL,MAD,DIV,SHFL>Default 1,1,19,25,145,32
-ptx_opcode_latency_fp           4,4,4,4,39 # Opcode latencies for single precision floating points <ADD,MAX,MUL,MAD,DIV>Default 1,1,1,1,30
-ptx_opcode_latency_dp      64,64,64,64,330 # Opcode latencies for double precision floating points <ADD,MAX,MUL,MAD,DIV>Default 8,8,8,8,335
-ptx_opcode_latency_sfu                   21 # Opcode latencies for SFU instructionsDefault 8
-ptx_opcode_latency_tesnor                   64 # Opcode latencies for Tensor instructionsDefault 64
-ptx_opcode_initiation_int            2,2,2,2,2 # Opcode initiation intervals for integers <ADD,MAX,MUL,MAD,DIV,SHFL>Default 1,1,4,4,32,4
-ptx_opcode_initiation_fp            2,2,2,2,4 # Opcode initiation intervals for single precision floating points <ADD,MAX,MUL,MAD,DIV>Default 1,1,1,1,5
-ptx_opcode_initiation_dp      64,64,64,64,130 # Opcode initiation intervals for double precision floating points <ADD,MAX,MUL,MAD,DIV>Default 8,8,8,8,130
-ptx_opcode_initiation_sfu                    8 # Opcode initiation intervals for sfu instructionsDefault 8
-ptx_opcode_initiation_tensor                   64 # Opcode initiation intervals for tensor instructionsDefault 64
-cdp_latency         7200,8000,100,12000,1600 # CDP API latency <cudaStreamCreateWithFlags, cudaGetParameterBufferV2_init_perWarp, cudaGetParameterBufferV2_perKernel, cudaLaunchDeviceV2_init_perWarp, cudaLaunchDevicV2_perKernel>Default 7200,8000,100,12000,1600
-network_mode                           2 # Interconnection network mode
-inter_config_file                   mesh # Interconnection network config file
-icnt_in_buffer_limit                  512 # in_buffer_limit
-icnt_out_buffer_limit                  512 # out_buffer_limit
-icnt_subnets                           2 # subnets
-icnt_arbiter_algo                      1 # arbiter_algo
-icnt_verbose                           0 # inct_verbose
-icnt_grant_cycles                      1 # grant_cycles
-gpgpu_ptx_use_cuobjdump                    1 # Use cuobjdump to extract ptx and sass from binaries
-gpgpu_experimental_lib_support                    0 # Try to extract code from cuda libraries [Broken because of unknown cudaGetExportTable]
-checkpoint_option                      0 #  checkpointing flag (0 = no checkpoint)
-checkpoint_kernel                      1 #  checkpointing during execution of which kernel (1- 1st kernel)
-checkpoint_CTA                         0 #  checkpointing after # of CTA (< less than total CTA)
-resume_option                          0 #  resume flag (0 = no resume)
-resume_kernel                          0 #  Resume from which kernel (1= 1st kernel)
-resume_CTA                             0 #  resume from which CTA 
-checkpoint_CTA_t                       0 #  resume from which CTA 
-checkpoint_insn_Y                      0 #  resume from which CTA 
-gpgpu_ptx_convert_to_ptxplus                    0 # Convert SASS (native ISA) to ptxplus and run ptxplus
-gpgpu_ptx_force_max_capability                   75 # Force maximum compute capability
-gpgpu_ptx_inst_debug_to_file                    0 # Dump executed instructions' debug information to file
-gpgpu_ptx_inst_debug_file       inst_debug.txt # Executed instructions' debug output file
-gpgpu_ptx_inst_debug_thread_uid                    1 # Thread UID for executed instructions' debug output
-gpgpu_simd_model                       1 # 1 = post-dominator
-gpgpu_shader_core_pipeline              1024:32 # shader core pipeline config, i.e., {<nthread>:<warpsize>}
-gpgpu_tex_cache:l1  N:4:128:256,L:R:m:N:L,T:512:8,128:2 # per-shader L1 texture cache  (READ-ONLY) config  {<nsets>:<bsize>:<assoc>,<rep>:<wr>:<alloc>:<wr_alloc>,<mshr>:<N>:<merge>,<mq>:<rf>}
-gpgpu_const_cache:l1 N:128:64:8,L:R:f:N:L,S:2:64,4 # per-shader L1 constant memory cache  (READ-ONLY) config  {<nsets>:<bsize>:<assoc>,<rep>:<wr>:<alloc>:<wr_alloc>,<mshr>:<N>:<merge>,<mq>} 
-gpgpu_cache:il1     N:64:128:16,L:R:f:N:L,S:2:48,4 # shader L1 instruction cache config  {<nsets>:<bsize>:<assoc>,<rep>:<wr>:<alloc>:<wr_alloc>,<mshr>:<N>:<merge>,<mq>} 
-gpgpu_cache:dl1     S:4:128:64,L:T:m:L:L,A:256:32,16:0,32 # per-shader L1 data cache config  {<nsets>:<bsize>:<assoc>,<rep>:<wr>:<alloc>:<wr_alloc>,<mshr>:<N>:<merge>,<mq> | none}
-gpgpu_l1_cache_write_ratio                   25 # L1D write ratio
-gpgpu_l1_banks                         4 # The number of L1 cache banks
-gpgpu_l1_banks_byte_interleaving                   32 # l1 banks byte interleaving granularity
-gpgpu_l1_banks_hashing_function                    0 # l1 banks hashing function
-gpgpu_l1_latency                      32 # L1 Hit Latency
-gpgpu_smem_latency                    30 # smem Latency
-gpgpu_cache:dl1PrefL1                 none # per-shader L1 data cache config  {<nsets>:<bsize>:<assoc>,<rep>:<wr>:<alloc>:<wr_alloc>,<mshr>:<N>:<merge>,<mq> | none}
-gpgpu_cache:dl1PrefShared                 none # per-shader L1 data cache config  {<nsets>:<bsize>:<assoc>,<rep>:<wr>:<alloc>:<wr_alloc>,<mshr>:<N>:<merge>,<mq> | none}
-gpgpu_gmem_skip_L1D                    0 # global memory access skip L1D cache (implements -Xptxas -dlcm=cg, default=no skip)
-gpgpu_perfect_mem                      0 # enable perfect memory mode (no cache miss)
-n_regfile_gating_group                    4 # group of lanes that should be read/written together)
-gpgpu_clock_gated_reg_file                    0 # enable clock gated reg file for power calculations
-gpgpu_clock_gated_lanes                    0 # enable clock gated lanes for power calculations
-gpgpu_shader_registers                65536 # Number of registers per shader core. Limits number of concurrent CTAs. (default 8192)
-gpgpu_registers_per_block                65536 # Maximum number of registers per CTA. (default 8192)
-gpgpu_ignore_resources_limitation                    0 # gpgpu_ignore_resources_limitation (default 0)
-gpgpu_shader_cta                      16 # Maximum number of concurrent CTAs in shader (default 32)
-gpgpu_num_cta_barriers                   16 # Maximum number of named barriers per CTA (default 16)
-gpgpu_n_clusters                      30 # number of processing clusters
-gpgpu_n_cores_per_cluster                    1 # number of simd cores per cluster
-gpgpu_n_cluster_ejection_buffer_size                   32 # number of packets in ejection buffer
-gpgpu_n_ldst_response_buffer_size                    2 # number of response packets in ld/st unit ejection buffer
-gpgpu_shmem_per_block                49152 # Size of shared memory per thread block or CTA (default 48kB)
-gpgpu_shmem_size                   65536 # Size of shared memory per shader core (default 16kB)
-gpgpu_shmem_option                 32,64 # Option list of shared memory sizes
-gpgpu_unified_l1d_size                   96 # Size of unified data cache(L1D + shared memory) in KB
-gpgpu_adaptive_cache_config                    1 # adaptive_cache_config
-gpgpu_shmem_sizeDefault                65536 # Size of shared memory per shader core (default 16kB)
-gpgpu_shmem_size_PrefL1                16384 # Size of shared memory per shader core (default 16kB)
-gpgpu_shmem_size_PrefShared                16384 # Size of shared memory per shader core (default 16kB)
-gpgpu_shmem_num_banks                   32 # Number of banks in the shared memory in each shader core (default 16)
-gpgpu_shmem_limited_broadcast                    0 # Limit shared memory to do one broadcast per cycle (default on)
-gpgpu_shmem_warp_parts                    1 # Number of portions a warp is divided into for shared memory bank conflict check 
-gpgpu_mem_unit_ports                    1 # The number of memory transactions allowed per core cycle
-gpgpu_shmem_warp_parts                    1 # Number of portions a warp is divided into for shared memory bank conflict check 
-gpgpu_warpdistro_shader                   -1 # Specify which shader core to collect the warp size distribution from
-gpgpu_warp_issue_shader                    0 # Specify which shader core to collect the warp issue distribution from
-gpgpu_local_mem_map                    1 # Mapping from local memory space address to simulated GPU physical address space (default = enabled)
-gpgpu_num_reg_banks                    8 # Number of register banks (default = 8)
-gpgpu_reg_bank_use_warp_id                    0 # Use warp ID in mapping registers to banks (default = off)
-gpgpu_sub_core_model                    1 # Sub Core Volta/Pascal model (default = off)
-gpgpu_enable_specialized_operand_collector                    0 # enable_specialized_operand_collector
-gpgpu_operand_collector_num_units_sp                    4 # number of collector units (default = 4)
-gpgpu_operand_collector_num_units_dp                    0 # number of collector units (default = 0)
-gpgpu_operand_collector_num_units_sfu                    4 # number of collector units (default = 4)
-gpgpu_operand_collector_num_units_int                    0 # number of collector units (default = 0)
-gpgpu_operand_collector_num_units_tensor_core                    4 # number of collector units (default = 4)
-gpgpu_operand_collector_num_units_mem                    2 # number of collector units (default = 2)
-gpgpu_operand_collector_num_units_gen                    8 # number of collector units (default = 0)
-gpgpu_operand_collector_num_in_ports_sp                    1 # number of collector unit in ports (default = 1)
-gpgpu_operand_collector_num_in_ports_dp                    0 # number of collector unit in ports (default = 0)
-gpgpu_operand_collector_num_in_ports_sfu                    1 # number of collector unit in ports (default = 1)
-gpgpu_operand_collector_num_in_ports_int                    0 # number of collector unit in ports (default = 0)
-gpgpu_operand_collector_num_in_ports_tensor_core                    1 # number of collector unit in ports (default = 1)
-gpgpu_operand_collector_num_in_ports_mem                    1 # number of collector unit in ports (default = 1)
-gpgpu_operand_collector_num_in_ports_gen                    8 # number of collector unit in ports (default = 0)
-gpgpu_operand_collector_num_out_ports_sp                    1 # number of collector unit in ports (default = 1)
-gpgpu_operand_collector_num_out_ports_dp                    0 # number of collector unit in ports (default = 0)
-gpgpu_operand_collector_num_out_ports_sfu                    1 # number of collector unit in ports (default = 1)
-gpgpu_operand_collector_num_out_ports_int                    0 # number of collector unit in ports (default = 0)
-gpgpu_operand_collector_num_out_ports_tensor_core                    1 # number of collector unit in ports (default = 1)
-gpgpu_operand_collector_num_out_ports_mem                    1 # number of collector unit in ports (default = 1)
-gpgpu_operand_collector_num_out_ports_gen                    8 # number of collector unit in ports (default = 0)
-gpgpu_coalesce_arch                   75 # Coalescing arch (GT200 = 13, Fermi = 20)
-gpgpu_num_sched_per_core                    4 # Number of warp schedulers per core
-gpgpu_max_insn_issue_per_warp                    1 # Max number of instructions that can be issued per warp in one cycle by scheduler (either 1 or 2)
-gpgpu_dual_issue_diff_exec_units                    1 # should dual issue use two different execution unit resources (Default = 1)
-gpgpu_simt_core_sim_order                    1 # Select the simulation order of cores in a cluster (0=Fix, 1=Round-Robin)
-gpgpu_pipeline_widths 4,4,4,4,4,4,4,4,4,4,8,4,4 # Pipeline widths ID_OC_SP,ID_OC_DP,ID_OC_INT,ID_OC_SFU,ID_OC_MEM,OC_EX_SP,OC_EX_DP,OC_EX_INT,OC_EX_SFU,OC_EX_MEM,EX_WB,ID_OC_TENSOR_CORE,OC_EX_TENSOR_CORE
-gpgpu_tensor_core_avail                    1 # Tensor Core Available (default=0)
-gpgpu_num_sp_units                     4 # Number of SP units (default=1)
-gpgpu_num_dp_units                     4 # Number of DP units (default=0)
-gpgpu_num_int_units                    4 # Number of INT units (default=0)
-gpgpu_num_sfu_units                    4 # Number of SF units (default=1)
-gpgpu_num_tensor_core_units                    4 # Number of tensor_core units (default=1)
-gpgpu_num_mem_units                    1 # Number if ldst units (default=1) WARNING: not hooked up to anything
-kernelBased                            1 # Does the approximator work as kernel based (default = 0)
-kernelId                               1 # Kernel ids where the approximation applied 
-hybridApproximation                    0 # Hybrid approximator (default = 0)
-errorPercentage                       50 # Error percentage (number of max flushed accesses)
-l1dApproximator                        1 # Memory access delete unit (default = 0)
-l1dSlicingAccessInterval                 5000 # Slice access window length (default = 1000)
-l2Approximator                         0 # Memory access delete unit (default = 0)
-l2SlicingAccessInterval                 5000 # Slice access window length (default = 1000)
-smOccupancy                            0 # sm occupancy (default = 0)
-smSlicingInterval                   5000 # Slice access window length (default = 1000)
-gpgpu_scheduler                      lrr # Scheduler configuration: < lrr | gto | two_level_active > If two_level_active:<num_active_warps>:<inner_prioritization>:<outer_prioritization>For complete list of prioritization values see shader.h enum scheduler_prioritization_typeDefault: gto
-gpgpu_concurrent_kernel_sm                    0 # Support concurrent kernels on a SM (default = disabled)
-gpgpu_perfect_inst_const_cache                    1 # perfect inst and const cache mode, so all inst and const hits in the cache(default = disabled)
-gpgpu_inst_fetch_throughput                    4 # the number of fetched intruction per warp each cycle
-gpgpu_reg_file_port_throughput                    2 # the number ports of the register file
-specialized_unit_1         0,4,4,4,4,BRA # specialized unit config {<enabled>,<num_units>:<latency>:<initiation>,<ID_OC_SPEC>:<OC_EX_SPEC>,<NAME>}
-specialized_unit_2         0,4,4,4,4,BRA # specialized unit config {<enabled>,<num_units>:<latency>:<initiation>,<ID_OC_SPEC>:<OC_EX_SPEC>,<NAME>}
-specialized_unit_3         0,4,4,4,4,BRA # specialized unit config {<enabled>,<num_units>:<latency>:<initiation>,<ID_OC_SPEC>:<OC_EX_SPEC>,<NAME>}
-specialized_unit_4         0,4,4,4,4,BRA # specialized unit config {<enabled>,<num_units>:<latency>:<initiation>,<ID_OC_SPEC>:<OC_EX_SPEC>,<NAME>}
-specialized_unit_5         0,4,4,4,4,BRA # specialized unit config {<enabled>,<num_units>:<latency>:<initiation>,<ID_OC_SPEC>:<OC_EX_SPEC>,<NAME>}
-specialized_unit_6         0,4,4,4,4,BRA # specialized unit config {<enabled>,<num_units>:<latency>:<initiation>,<ID_OC_SPEC>:<OC_EX_SPEC>,<NAME>}
-specialized_unit_7         0,4,4,4,4,BRA # specialized unit config {<enabled>,<num_units>:<latency>:<initiation>,<ID_OC_SPEC>:<OC_EX_SPEC>,<NAME>}
-specialized_unit_8         0,4,4,4,4,BRA # specialized unit config {<enabled>,<num_units>:<latency>:<initiation>,<ID_OC_SPEC>:<OC_EX_SPEC>,<NAME>}
-gpgpu_perf_sim_memcpy                    1 # Fill the L2 cache on memcpy
-gpgpu_simple_dram_model                    0 # simple_dram_model with fixed latency and BW
-gpgpu_dram_scheduler                    1 # 0 = fifo, 1 = FR-FCFS (defaul)
-gpgpu_dram_partition_queues          64:64:64:64 # i2$:$2d:d2$:$2i
-l2_ideal                               0 # Use a ideal L2 cache that always hit
-gpgpu_cache:dl2     S:64:128:16,L:B:m:L:P,A:192:4,32:0,32 # unified banked L2 data cache config  {<nsets>:<bsize>:<assoc>,<rep>:<wr>:<alloc>:<wr_alloc>,<mshr>:<N>:<merge>,<mq>}
-gpgpu_cache:dl2_texture_only                    0 # L2 cache used for texture only
-gpgpu_n_mem                           12 # number of memory modules (e.g. memory controllers) in gpu
-gpgpu_n_sub_partition_per_mchannel                    2 # number of memory subpartition in each memory module
-gpgpu_n_mem_per_ctrlr                    1 # number of memory chips per memory controller
-gpgpu_memlatency_stat                   14 # track and display latency statistics 0x2 enables MC, 0x4 enables queue logs
-gpgpu_frfcfs_dram_sched_queue_size                   64 # 0 = unlimited (default); # entries per chip
-gpgpu_dram_return_queue_size                  192 # 0 = unlimited (default); # entries per chip
-gpgpu_dram_buswidth                    2 # default = 4 bytes (8 bytes per cycle at DDR)
-gpgpu_dram_burst_length                   16 # Burst length of each DRAM request (default = 4 data bus cycle)
-dram_data_command_freq_ratio                    4 # Frequency ratio between DRAM data bus and command bus (default = 2 times, i.e. DDR)
-gpgpu_dram_timing_opt nbk=16:CCD=4:RRD=12:RCD=24:RAS=55:RP=24:RC=78:CL=24:WL=8:CDLR=10:WR=24:nbkgrp=4:CCDL=6:RTPL=4 # DRAM timing parameters = {nbk:tCCD:tRRD:tRCD:tRAS:tRP:tRC:CL:WL:tCDLR:tWR:nbkgrp:tCCDL:tRTPL}
-gpgpu_l2_rop_latency                  194 # ROP queue latency (default 85)
-dram_latency                          96 # DRAM latency (default 30)
-dram_dual_bus_interface                    0 # dual_bus_interface (default = 0) 
-dram_bnk_indexing_policy                    0 # dram_bnk_indexing_policy (0 = normal indexing, 1 = Xoring with the higher bits) (Default = 0)
-dram_bnkgrp_indexing_policy                    1 # dram_bnkgrp_indexing_policy (0 = take higher bits, 1 = take lower bits) (Default = 0)
-dram_seperate_write_queue_enable                    0 # Seperate_Write_Queue_Enable
-dram_write_queue_size             32:28:16 # Write_Queue_Size
-dram_elimnate_rw_turnaround                    0 # elimnate_rw_turnaround i.e set tWTR and tRTW = 0
-icnt_flit_size                        40 # icnt_flit_size
-icnt_flit_size                        40 # icnt_flit_size
-mem_profiler                           0 # memory access runtime profiling (0 = not enabled)
-gpgpu_mem_addr_mapping dramid@8;00000000.00000000.00000000.00000000.0000RRRR.RRRRRRRR.RBBBCCCC.BCCSSSSS # mapping memory address to dram model {dramid@<start bit>;<memory address map>}
-gpgpu_mem_addr_test                    0 # run sweep test to check address mapping for aliased address
-gpgpu_mem_address_mask                    1 # 0 = old addressing mask, 1 = new addressing mask, 2 = new add. mask + flipped bank sel and chip sel bits
-gpgpu_memory_partition_indexing                    0 # 0 = no indexing, 1 = bitwise xoring, 2 = IPoly, 3 = custom indexing
-accelwattch_xml_file accelwattch_sass_sim.xml # AccelWattch XML file
-power_simulation_enabled                    1 # Turn on power simulator (1=On, 0=Off)
-power_per_cycle_dump                    1 # Dump detailed power output each cycle
-hw_perf_file_name            hw_perf.csv # Hardware Performance Statistics file
-hw_perf_bench_name    hw_perf_bench_name # Kernel Name in Hardware Performance Statistics file
-power_simulation_mode                    0 # Switch performance counter input for power simulation (0=Sim, 1=HW, 2=HW-Sim Hybrid)
-dvfs_enabled                           1 # Turn on DVFS for power model
-aggregate_power_stats                    0 # Accumulate power across all kernels
-accelwattch_hybrid_perfsim_L1_RH                    0 # Get L1 Read Hits for Accelwattch-Hybrid from Accel-Sim
-accelwattch_hybrid_perfsim_L1_RM                    0 # Get L1 Read Misses for Accelwattch-Hybrid from Accel-Sim
-accelwattch_hybrid_perfsim_L1_WH                    0 # Get L1 Write Hits for Accelwattch-Hybrid from Accel-Sim
-accelwattch_hybrid_perfsim_L1_WM                    0 # Get L1 Write Misses for Accelwattch-Hybrid from Accel-Sim
-accelwattch_hybrid_perfsim_L2_RH                    0 # Get L2 Read Hits for Accelwattch-Hybrid from Accel-Sim
-accelwattch_hybrid_perfsim_L2_RM                    0 # Get L2 Read Misses for Accelwattch-Hybrid from Accel-Sim
-accelwattch_hybrid_perfsim_L2_WH                    0 # Get L2 Write Hits for Accelwattch-Hybrid from Accel-Sim
-accelwattch_hybrid_perfsim_L2_WM                    0 # Get L2 Write Misses for Accelwattch-Hybrid from Accel-Sim
-accelwattch_hybrid_perfsim_CC_ACC                    0 # Get Constant Cache Acesses for Accelwattch-Hybrid from Accel-Sim
-accelwattch_hybrid_perfsim_SHARED_ACC                    0 # Get Shared Memory Acesses for Accelwattch-Hybrid from Accel-Sim
-accelwattch_hybrid_perfsim_DRAM_RD                    0 # Get DRAM Reads for Accelwattch-Hybrid from Accel-Sim
-accelwattch_hybrid_perfsim_DRAM_WR                    0 # Get DRAM Writes for Accelwattch-Hybrid from Accel-Sim
-accelwattch_hybrid_perfsim_NOC                    0 # Get Interconnect Acesses for Accelwattch-Hybrid from Accel-Sim
-accelwattch_hybrid_perfsim_PIPE_DUTY                    0 # Get Pipeline Duty Cycle Acesses for Accelwattch-Hybrid from Accel-Sim
-accelwattch_hybrid_perfsim_NUM_SM_IDLE                    0 # Get Number of Idle SMs for Accelwattch-Hybrid from Accel-Sim
-accelwattch_hybrid_perfsim_CYCLES                    0 # Get Executed Cycles for Accelwattch-Hybrid from Accel-Sim
-accelwattch_hybrid_perfsim_VOLTAGE                    0 # Get Chip Voltage for Accelwattch-Hybrid from Accel-Sim
-power_trace_enabled                    0 # produce a file for the power trace (1=On, 0=Off)
-power_trace_zlevel                     0 # Compression level of the power trace output log (0=no comp, 9=highest)
-steady_power_levels_enabled                    0 # produce a file for the steady power levels (1=On, 0=Off)
-steady_state_definition                  8:4 # allowed deviation:number of samples
-gpgpu_max_cycle                        0 # terminates gpu simulation early (0 = no limit)
-gpgpu_max_insn                         0 # terminates gpu simulation early (0 = no limit)
-gpgpu_max_cta                          0 # terminates gpu simulation early (0 = no limit)
-gpgpu_max_completed_cta                    0 # terminates gpu simulation early (0 = no limit)
-gpgpu_runtime_stat                  1000 # display runtime statistics such as dram utilization {<freq>:<flag>}
-liveness_message_freq                    1 # Minimum number of seconds between simulation liveness messages (0 = always print)
-gpgpu_compute_capability_major                    7 # Major compute capability version number
-gpgpu_compute_capability_minor                    5 # Minor compute capability version number
-gpgpu_flush_l1_cache                    1 # Flush L1 cache at the end of each kernel call
-gpgpu_flush_l2_cache                    0 # Flush L2 cache at the end of each kernel call
-gpgpu_deadlock_detect                    1 # Stop the simulation at deadlock (1=on (default), 0=off)
-gpgpu_ptx_instruction_classification                    0 # if enabled will classify ptx instruction types per kernel (Max 255 kernels now)
-gpgpu_ptx_sim_mode                     0 # Select between Performance (default) or Functional simulation (1)
-gpgpu_clock_domains 1365:1365:1365:3500.5 # Clock Domain Frequencies in MhZ {<Core Clock>:<ICNT Clock>:<L2 Clock>:<DRAM Clock>}
-gpgpu_max_concurrent_kernel                  128 # maximum kernels that can run concurrently on GPU, set this value according to max resident grids for your compute capability
-gpgpu_cflog_interval                    0 # Interval between each snapshot in control flow logger
-visualizer_enabled                     0 # Turn on visualizer output (1=On, 0=Off)
-visualizer_outputfile                 NULL # Specifies the output log file for visualizer
-visualizer_zlevel                      6 # Compression level of the visualizer output log (0=no comp, 9=highest)
-gpgpu_stack_size_limit                 1024 # GPU thread stack size
-gpgpu_heap_size_limit              8388608 # GPU malloc heap size 
-gpgpu_runtime_sync_depth_limit                    2 # GPU device runtime synchronize depth
-gpgpu_runtime_pending_launch_count_limit                 2048 # GPU device runtime pending launch count
-trace_enabled                          0 # Turn on traces
-trace_components                    none # comma seperated list of traces to enable. Complete list found in trace_streams.tup. Default none
-trace_sampling_core                    0 # The core which is printed using CORE_DPRINTF. Default 0
-trace_sampling_memory_partition                   -1 # The memory partition which is printed using MEMPART_DPRINTF. Default -1 (i.e. all)
-enable_ptx_file_line_stats                    1 # Turn on PTX source line statistic profiling. (1 = On)
-ptx_line_stats_filename gpgpu_inst_stats.txt # Output file for PTX source line statistics.
-gpgpu_kernel_launch_latency                 5000 # Kernel launch latency in cycles. Default: 0
-gpgpu_cdp_enabled                      0 # Turn on CDP
-gpgpu_TB_launch_latency                    0 # thread block launch latency in cycles. Default: 0
-mem_runtime_stat                     100 # memory access runtime profiling sampling freq
-L1D_metrics                            0 # memory access runtime profiling for L1 data cache
-noncoal_metrics                        0 # memory access runtime profiling for shared memory
-L2_metrics                             0 # memory access runtime profiling for L2 cache
-DRAM_metrics                           0 # memory access runtime profiling for DRAM
-Shmem_metrics                          0 # memory access runtime profiling for noncoalesced accesses
-store_enable                           0 # Enable stores for memory profiling
-accumulate_stats                       0 # Accumulate stats for the memory profiling
-dump_enable                            0 # Process dump enable flag - (def = 0)
-flush_l1d                              0 # Enable flushings for L1D caches - (default = 0)
-flush_l2                               0 # Enable flushings for L2 caches - (default = 0)
-flush_dram                             0 # Enable flushings for DRAM - (default = 0)
-flush_noncoalesceds                    0 # Enable flushings for non coalesced accesses - (default = 0)
-flush_shmems                           0 # Enable flushings for shared memory accesses - (default = 0)
-error_percentage                       2 # Error percentage for the flushes - (default = 1)
-flush_acc_type                         2 # Flush access types
-monitor_sampling_cycle                  200 # Monitoring sampling cycle - (default = 5000)
DRAM Timing Options:
nbk                                    16 # number of banks
CCD                                     4 # column to column delay
RRD                                    12 # minimal delay between activation of rows in different banks
RCD                                    24 # row to column delay
RAS                                    55 # time needed to activate row
RP                                     24 # time needed to precharge (deactivate) row
RC                                     78 # row cycle time
CDLR                                   10 # switching from write to read (changes tWTR)
WR                                     24 # last data-in to row precharge
CL                                     24 # CAS latency
WL                                      8 # Write latency
nbkgrp                                  4 # number of bank groups
CCDL                                    6 # column to column delay between accesses to different bank groups
RTPL                                    4 # read to precharge delay between accesses to different bank groups
Total number of memory sub partition = 24
addr_dec_mask[CHIP]  = 0000000000000000 	high:64 low:0
addr_dec_mask[BK]    = 0000000000007080 	high:15 low:7
addr_dec_mask[ROW]   = 000000000fff8000 	high:28 low:15
addr_dec_mask[COL]   = 0000000000000f7f 	high:12 low:0
addr_dec_mask[BURST] = 000000000000001f 	high:5 low:0
sub_partition_id_mask = 0000000000000080
GPGPU-Sim uArch: clock freqs: 1365000000.000000:1365000000.000000:1365000000.000000:3500500000.000000
GPGPU-Sim uArch: clock periods: 0.00000000073260073260:0.00000000073260073260:0.00000000073260073260:0.00000000028567347522
*** Initializing Memory Statistics ***
GPGPU-Sim uArch: performance model initialization complete.
--------------------------------------------------------------
L1D access stats (for 0'th SM) 
--	Kid = 0 || L1D Acc = 183602, -- Miss = 148278, rate = 0.8076, -- PendHits = 34784, rate = 0.1895-- ResFail = 11232, rate = 0.0612
Error Per = 50 || Flushes = 2965 || slicingInterval = 5000
--	Kid = 1 || L1D Acc = 183816, -- Miss = 146640, rate = 0.7978, -- PendHits = 36297, rate = 0.1975-- ResFail = 10206, rate = 0.0555
Error Per = 50 || Flushes = 2932 || slicingInterval = 5000
--	Kid = 2 || L1D Acc = 183816, -- Miss = 147368, rate = 0.8017, -- PendHits = 35898, rate = 0.1953-- ResFail = 10509, rate = 0.0572
Error Per = 50 || Flushes = 2947 || slicingInterval = 5000
--	Kid = 3 || L1D Acc = 177008, -- Miss = 132756, rate = 0.7500, -- PendHits = 38502, rate = 0.2175-- ResFail = 9207, rate = 0.0520
Error Per = 50 || Flushes = 2655 || slicingInterval = 5000
--	Kid = 4 || L1D Acc = 179106, -- Miss = 143182, rate = 0.7994, -- PendHits = 35394, rate = 0.1976-- ResFail = 12097, rate = 0.0675
Error Per = 50 || Flushes = 2863 || slicingInterval = 5000
--	Kid = 5 || L1D Acc = 183816, -- Miss = 143728, rate = 0.7819, -- PendHits = 38661, rate = 0.2103-- ResFail = 11344, rate = 0.0617
Error Per = 50 || Flushes = 2874 || slicingInterval = 5000
--	Kid = 6 || L1D Acc = 178710, -- Miss = 142142, rate = 0.7954, -- PendHits = 35389, rate = 0.1980-- ResFail = 8743, rate = 0.0489
Error Per = 50 || Flushes = 2842 || slicingInterval = 5000
--	Kid = 7 || L1D Acc = 183816, -- Miss = 148460, rate = 0.8077, -- PendHits = 34376, rate = 0.1870-- ResFail = 10945, rate = 0.0595
Error Per = 50 || Flushes = 2969 || slicingInterval = 5000
--	Kid = 8 || L1D Acc = 182114, -- Miss = 147446, rate = 0.8096, -- PendHits = 34133, rate = 0.1874-- ResFail = 10012, rate = 0.0550
Error Per = 50 || Flushes = 2948 || slicingInterval = 5000
--	Kid = 9 || L1D Acc = 170530, -- Miss = 143223, rate = 0.8399, -- PendHits = 26721, rate = 0.1567-- ResFail = 11014, rate = 0.0646
Error Per = 50 || Flushes = 2864 || slicingInterval = 5000
--------------------------------------------------------------
L1D access stats (for 1'th SM) 
--	Kid = 0 || L1D Acc = 183816, -- Miss = 147732, rate = 0.8037, -- PendHits = 35302, rate = 0.1921-- ResFail = 10017, rate = 0.0545
Error Per = 50 || Flushes = 2954 || slicingInterval = 5000
--	Kid = 1 || L1D Acc = 178710, -- Miss = 137046, rate = 0.7669, -- PendHits = 40226, rate = 0.2251-- ResFail = 11086, rate = 0.0620
Error Per = 50 || Flushes = 2740 || slicingInterval = 5000
--	Kid = 2 || L1D Acc = 183816, -- Miss = 148096, rate = 0.8057, -- PendHits = 35178, rate = 0.1914-- ResFail = 9656, rate = 0.0525
Error Per = 50 || Flushes = 2961 || slicingInterval = 5000
--	Kid = 3 || L1D Acc = 183816, -- Miss = 147004, rate = 0.7997, -- PendHits = 36116, rate = 0.1965-- ResFail = 11669, rate = 0.0635
Error Per = 50 || Flushes = 2940 || slicingInterval = 5000
--	Kid = 4 || L1D Acc = 183816, -- Miss = 148096, rate = 0.8057, -- PendHits = 35179, rate = 0.1914-- ResFail = 10604, rate = 0.0577
Error Per = 50 || Flushes = 2961 || slicingInterval = 5000
--	Kid = 5 || L1D Acc = 183602, -- Miss = 143546, rate = 0.7818, -- PendHits = 38910, rate = 0.2119-- ResFail = 9694, rate = 0.0528
Error Per = 50 || Flushes = 2870 || slicingInterval = 5000
--	Kid = 6 || L1D Acc = 183816, -- Miss = 148824, rate = 0.8096, -- PendHits = 34452, rate = 0.1874-- ResFail = 9412, rate = 0.0512
Error Per = 50 || Flushes = 2976 || slicingInterval = 5000
--	Kid = 7 || L1D Acc = 183816, -- Miss = 148096, rate = 0.8057, -- PendHits = 35000, rate = 0.1904-- ResFail = 9652, rate = 0.0525
Error Per = 50 || Flushes = 2961 || slicingInterval = 5000
--	Kid = 8 || L1D Acc = 183816, -- Miss = 147368, rate = 0.8017, -- PendHits = 35905, rate = 0.1953-- ResFail = 9731, rate = 0.0529
Error Per = 50 || Flushes = 2947 || slicingInterval = 5000
--	Kid = 9 || L1D Acc = 166852, -- Miss = 141906, rate = 0.8505, -- PendHits = 24467, rate = 0.1466-- ResFail = 10626, rate = 0.0637
Error Per = 50 || Flushes = 2838 || slicingInterval = 5000
--------------------------------------------------------------
L1D access stats (for 2'th SM) 
--	Kid = 0 || L1D Acc = 182114, -- Miss = 146718, rate = 0.8056, -- PendHits = 34860, rate = 0.1914-- ResFail = 12995, rate = 0.0714
Error Per = 50 || Flushes = 2934 || slicingInterval = 5000
--	Kid = 1 || L1D Acc = 183816, -- Miss = 148460, rate = 0.8077, -- PendHits = 34815, rate = 0.1894-- ResFail = 9801, rate = 0.0533
Error Per = 50 || Flushes = 2969 || slicingInterval = 5000
--	Kid = 2 || L1D Acc = 182114, -- Miss = 147082, rate = 0.8076, -- PendHits = 34296, rate = 0.1883-- ResFail = 9059, rate = 0.0497
Error Per = 50 || Flushes = 2941 || slicingInterval = 5000
--	Kid = 3 || L1D Acc = 183816, -- Miss = 147368, rate = 0.8017, -- PendHits = 35817, rate = 0.1949-- ResFail = 11184, rate = 0.0608
Error Per = 50 || Flushes = 2947 || slicingInterval = 5000
--	Kid = 4 || L1D Acc = 177008, -- Miss = 132028, rate = 0.7459, -- PendHits = 43545, rate = 0.2460-- ResFail = 9276, rate = 0.0524
Error Per = 50 || Flushes = 2640 || slicingInterval = 5000
--	Kid = 5 || L1D Acc = 183816, -- Miss = 148824, rate = 0.8096, -- PendHits = 34452, rate = 0.1874-- ResFail = 10305, rate = 0.0561
Error Per = 50 || Flushes = 2976 || slicingInterval = 5000
--	Kid = 6 || L1D Acc = 178710, -- Miss = 144326, rate = 0.8076, -- PendHits = 33858, rate = 0.1895-- ResFail = 11879, rate = 0.0665
Error Per = 50 || Flushes = 2886 || slicingInterval = 5000
--	Kid = 7 || L1D Acc = 177008, -- Miss = 135304, rate = 0.7644, -- PendHits = 40537, rate = 0.2290-- ResFail = 8264, rate = 0.0467
Error Per = 50 || Flushes = 2706 || slicingInterval = 5000
--	Kid = 8 || L1D Acc = 178710, -- Miss = 142142, rate = 0.7954, -- PendHits = 35883, rate = 0.2008-- ResFail = 11883, rate = 0.0665
Error Per = 50 || Flushes = 2842 || slicingInterval = 5000
--	Kid = 9 || L1D Acc = 172716, -- Miss = 143304, rate = 0.8297, -- PendHits = 28857, rate = 0.1671-- ResFail = 9877, rate = 0.0572
Error Per = 50 || Flushes = 2866 || slicingInterval = 5000
--------------------------------------------------------------
L1D access stats (for 3'th SM) 
--	Kid = 0 || L1D Acc = 177008, -- Miss = 139308, rate = 0.7870, -- PendHits = 35778, rate = 0.2021-- ResFail = 9659, rate = 0.0546
Error Per = 50 || Flushes = 2786 || slicingInterval = 5000
--	Kid = 1 || L1D Acc = 183744, -- Miss = 148024, rate = 0.8056, -- PendHits = 35066, rate = 0.1908-- ResFail = 9462, rate = 0.0515
Error Per = 50 || Flushes = 2960 || slicingInterval = 5000
--	Kid = 2 || L1D Acc = 178710, -- Miss = 141050, rate = 0.7893, -- PendHits = 35479, rate = 0.1985-- ResFail = 7671, rate = 0.0429
Error Per = 50 || Flushes = 2821 || slicingInterval = 5000
--	Kid = 3 || L1D Acc = 182114, -- Miss = 147446, rate = 0.8096, -- PendHits = 34133, rate = 0.1874-- ResFail = 9152, rate = 0.0503
Error Per = 50 || Flushes = 2948 || slicingInterval = 5000
--	Kid = 4 || L1D Acc = 183816, -- Miss = 148824, rate = 0.8096, -- PendHits = 34452, rate = 0.1874-- ResFail = 9664, rate = 0.0526
Error Per = 50 || Flushes = 2976 || slicingInterval = 5000
--	Kid = 5 || L1D Acc = 183816, -- Miss = 146640, rate = 0.7978, -- PendHits = 36280, rate = 0.1974-- ResFail = 9179, rate = 0.0499
Error Per = 50 || Flushes = 2932 || slicingInterval = 5000
--	Kid = 6 || L1D Acc = 183816, -- Miss = 146640, rate = 0.7978, -- PendHits = 36627, rate = 0.1993-- ResFail = 10146, rate = 0.0552
Error Per = 50 || Flushes = 2932 || slicingInterval = 5000
--	Kid = 7 || L1D Acc = 178710, -- Miss = 142870, rate = 0.7995, -- PendHits = 35127, rate = 0.1966-- ResFail = 9358, rate = 0.0524
Error Per = 50 || Flushes = 2857 || slicingInterval = 5000
--	Kid = 8 || L1D Acc = 183816, -- Miss = 145548, rate = 0.7918, -- PendHits = 37177, rate = 0.2023-- ResFail = 10341, rate = 0.0563
Error Per = 50 || Flushes = 2910 || slicingInterval = 5000
--	Kid = 9 || L1D Acc = 170140, -- Miss = 141525, rate = 0.8318, -- PendHits = 28162, rate = 0.1655-- ResFail = 11122, rate = 0.0654
Error Per = 50 || Flushes = 2830 || slicingInterval = 5000
--------------------------------------------------------------
L1D access stats (for 4'th SM) 
--	Kid = 0 || L1D Acc = 183816, -- Miss = 148460, rate = 0.8077, -- PendHits = 34816, rate = 0.1894-- ResFail = 9651, rate = 0.0525
Error Per = 50 || Flushes = 2969 || slicingInterval = 5000
--	Kid = 1 || L1D Acc = 180412, -- Miss = 145704, rate = 0.8076, -- PendHits = 34177, rate = 0.1894-- ResFail = 8754, rate = 0.0485
Error Per = 50 || Flushes = 2914 || slicingInterval = 5000
--	Kid = 2 || L1D Acc = 182114, -- Miss = 147446, rate = 0.8096, -- PendHits = 34133, rate = 0.1874-- ResFail = 10280, rate = 0.0564
Error Per = 50 || Flushes = 2948 || slicingInterval = 5000
--	Kid = 3 || L1D Acc = 183816, -- Miss = 148096, rate = 0.8057, -- PendHits = 35168, rate = 0.1913-- ResFail = 8908, rate = 0.0485
Error Per = 50 || Flushes = 2961 || slicingInterval = 5000
--	Kid = 4 || L1D Acc = 177008, -- Miss = 140036, rate = 0.7911, -- PendHits = 34550, rate = 0.1952-- ResFail = 10123, rate = 0.0572
Error Per = 50 || Flushes = 2800 || slicingInterval = 5000
--	Kid = 5 || L1D Acc = 177008, -- Miss = 141128, rate = 0.7973, -- PendHits = 35356, rate = 0.1997-- ResFail = 9344, rate = 0.0528
Error Per = 50 || Flushes = 2822 || slicingInterval = 5000
--	Kid = 6 || L1D Acc = 183816, -- Miss = 148460, rate = 0.8077, -- PendHits = 34815, rate = 0.1894-- ResFail = 10678, rate = 0.0581
Error Per = 50 || Flushes = 2969 || slicingInterval = 5000
--	Kid = 7 || L1D Acc = 182114, -- Miss = 146718, rate = 0.8056, -- PendHits = 34858, rate = 0.1914-- ResFail = 7614, rate = 0.0418
Error Per = 50 || Flushes = 2934 || slicingInterval = 5000
--	Kid = 8 || L1D Acc = 182114, -- Miss = 147082, rate = 0.8076, -- PendHits = 34496, rate = 0.1894-- ResFail = 10868, rate = 0.0597
Error Per = 50 || Flushes = 2941 || slicingInterval = 5000
--	Kid = 9 || L1D Acc = 171496, -- Miss = 144636, rate = 0.8434, -- PendHits = 26390, rate = 0.1539-- ResFail = 10431, rate = 0.0608
Error Per = 50 || Flushes = 2892 || slicingInterval = 5000
--------------------------------------------------------------
L1D access stats (for 5'th SM) 
--	Kid = 0 || L1D Acc = 183816, -- Miss = 147732, rate = 0.8037, -- PendHits = 35530, rate = 0.1933-- ResFail = 8646, rate = 0.0470
Error Per = 50 || Flushes = 2954 || slicingInterval = 5000
--	Kid = 1 || L1D Acc = 183816, -- Miss = 148096, rate = 0.8057, -- PendHits = 34887, rate = 0.1898-- ResFail = 10384, rate = 0.0565
Error Per = 50 || Flushes = 2961 || slicingInterval = 5000
--	Kid = 2 || L1D Acc = 178710, -- Miss = 143598, rate = 0.8035, -- PendHits = 34585, rate = 0.1935-- ResFail = 10845, rate = 0.0607
Error Per = 50 || Flushes = 2871 || slicingInterval = 5000
--	Kid = 3 || L1D Acc = 183816, -- Miss = 146640, rate = 0.7978, -- PendHits = 36564, rate = 0.1989-- ResFail = 8480, rate = 0.0461
Error Per = 50 || Flushes = 2932 || slicingInterval = 5000
--	Kid = 4 || L1D Acc = 183816, -- Miss = 147732, rate = 0.8037, -- PendHits = 35503, rate = 0.1931-- ResFail = 9452, rate = 0.0514
Error Per = 50 || Flushes = 2954 || slicingInterval = 5000
--	Kid = 5 || L1D Acc = 183816, -- Miss = 148096, rate = 0.8057, -- PendHits = 35024, rate = 0.1905-- ResFail = 10794, rate = 0.0587
Error Per = 50 || Flushes = 2961 || slicingInterval = 5000
--	Kid = 6 || L1D Acc = 178710, -- Miss = 136682, rate = 0.7648, -- PendHits = 40357, rate = 0.2258-- ResFail = 8874, rate = 0.0497
Error Per = 50 || Flushes = 2733 || slicingInterval = 5000
--	Kid = 7 || L1D Acc = 177008, -- Miss = 141492, rate = 0.7994, -- PendHits = 34993, rate = 0.1977-- ResFail = 11270, rate = 0.0637
Error Per = 50 || Flushes = 2829 || slicingInterval = 5000
--	Kid = 8 || L1D Acc = 183816, -- Miss = 148460, rate = 0.8077, -- PendHits = 34815, rate = 0.1894-- ResFail = 10831, rate = 0.0589
Error Per = 50 || Flushes = 2969 || slicingInterval = 5000
--	Kid = 9 || L1D Acc = 171496, -- Miss = 142530, rate = 0.8311, -- PendHits = 28540, rate = 0.1664-- ResFail = 12055, rate = 0.0703
Error Per = 50 || Flushes = 2850 || slicingInterval = 5000
--------------------------------------------------------------
L1D access stats (for 6'th SM) 
--	Kid = 0 || L1D Acc = 182114, -- Miss = 147082, rate = 0.8076, -- PendHits = 34342, rate = 0.1886-- ResFail = 10617, rate = 0.0583
Error Per = 50 || Flushes = 2941 || slicingInterval = 5000
--	Kid = 1 || L1D Acc = 183816, -- Miss = 147732, rate = 0.8037, -- PendHits = 35544, rate = 0.1934-- ResFail = 12373, rate = 0.0673
Error Per = 50 || Flushes = 2954 || slicingInterval = 5000
--	Kid = 2 || L1D Acc = 182114, -- Miss = 143806, rate = 0.7896, -- PendHits = 37095, rate = 0.2037-- ResFail = 8846, rate = 0.0486
Error Per = 50 || Flushes = 2876 || slicingInterval = 5000
--	Kid = 3 || L1D Acc = 177008, -- Miss = 139308, rate = 0.7870, -- PendHits = 36973, rate = 0.2089-- ResFail = 10498, rate = 0.0593
Error Per = 50 || Flushes = 2786 || slicingInterval = 5000
--	Kid = 4 || L1D Acc = 178710, -- Miss = 142506, rate = 0.7974, -- PendHits = 35330, rate = 0.1977-- ResFail = 10980, rate = 0.0614
Error Per = 50 || Flushes = 2850 || slicingInterval = 5000
--	Kid = 5 || L1D Acc = 182114, -- Miss = 146718, rate = 0.8056, -- PendHits = 34860, rate = 0.1914-- ResFail = 9936, rate = 0.0546
Error Per = 50 || Flushes = 2934 || slicingInterval = 5000
--	Kid = 6 || L1D Acc = 183816, -- Miss = 147368, rate = 0.8017, -- PendHits = 35789, rate = 0.1947-- ResFail = 9896, rate = 0.0538
Error Per = 50 || Flushes = 2947 || slicingInterval = 5000
--	Kid = 7 || L1D Acc = 183816, -- Miss = 147732, rate = 0.8037, -- PendHits = 35542, rate = 0.1934-- ResFail = 9986, rate = 0.0543
Error Per = 50 || Flushes = 2954 || slicingInterval = 5000
--	Kid = 8 || L1D Acc = 183816, -- Miss = 148824, rate = 0.8096, -- PendHits = 34452, rate = 0.1874-- ResFail = 10312, rate = 0.0561
Error Per = 50 || Flushes = 2976 || slicingInterval = 5000
--	Kid = 9 || L1D Acc = 169106, -- Miss = 141576, rate = 0.8372, -- PendHits = 27040, rate = 0.1599-- ResFail = 10213, rate = 0.0604
Error Per = 50 || Flushes = 2831 || slicingInterval = 5000
--------------------------------------------------------------
L1D access stats (for 7'th SM) 
--	Kid = 0 || L1D Acc = 183816, -- Miss = 146640, rate = 0.7978, -- PendHits = 36419, rate = 0.1981-- ResFail = 9351, rate = 0.0509
Error Per = 50 || Flushes = 2932 || slicingInterval = 5000
--	Kid = 1 || L1D Acc = 182114, -- Miss = 146718, rate = 0.8056, -- PendHits = 34855, rate = 0.1914-- ResFail = 9811, rate = 0.0539
Error Per = 50 || Flushes = 2934 || slicingInterval = 5000
--	Kid = 2 || L1D Acc = 178710, -- Miss = 143598, rate = 0.8035, -- PendHits = 34508, rate = 0.1931-- ResFail = 9003, rate = 0.0504
Error Per = 50 || Flushes = 2871 || slicingInterval = 5000
--	Kid = 3 || L1D Acc = 180412, -- Miss = 143156, rate = 0.7935, -- PendHits = 36577, rate = 0.2027-- ResFail = 11277, rate = 0.0625
Error Per = 50 || Flushes = 2863 || slicingInterval = 5000
--	Kid = 4 || L1D Acc = 183816, -- Miss = 148096, rate = 0.8057, -- PendHits = 35178, rate = 0.1914-- ResFail = 10205, rate = 0.0555
Error Per = 50 || Flushes = 2961 || slicingInterval = 5000
--	Kid = 5 || L1D Acc = 180412, -- Miss = 141336, rate = 0.7834, -- PendHits = 37787, rate = 0.2094-- ResFail = 10474, rate = 0.0581
Error Per = 50 || Flushes = 2826 || slicingInterval = 5000
--	Kid = 6 || L1D Acc = 183816, -- Miss = 148096, rate = 0.8057, -- PendHits = 35068, rate = 0.1908-- ResFail = 11675, rate = 0.0635
Error Per = 50 || Flushes = 2961 || slicingInterval = 5000
--	Kid = 7 || L1D Acc = 178710, -- Miss = 142142, rate = 0.7954, -- PendHits = 35549, rate = 0.1989-- ResFail = 10961, rate = 0.0613
Error Per = 50 || Flushes = 2842 || slicingInterval = 5000
--	Kid = 8 || L1D Acc = 183816, -- Miss = 145184, rate = 0.7898, -- PendHits = 37824, rate = 0.2058-- ResFail = 10963, rate = 0.0596
Error Per = 50 || Flushes = 2903 || slicingInterval = 5000
--	Kid = 9 || L1D Acc = 168747, -- Miss = 142659, rate = 0.8454, -- PendHits = 25628, rate = 0.1519-- ResFail = 10667, rate = 0.0632
Error Per = 50 || Flushes = 2853 || slicingInterval = 5000
--------------------------------------------------------------
L1D access stats (for 8'th SM) 
--	Kid = 0 || L1D Acc = 183816, -- Miss = 147732, rate = 0.8037, -- PendHits = 35493, rate = 0.1931-- ResFail = 9083, rate = 0.0494
Error Per = 50 || Flushes = 2954 || slicingInterval = 5000
--	Kid = 1 || L1D Acc = 183816, -- Miss = 147732, rate = 0.8037, -- PendHits = 35542, rate = 0.1934-- ResFail = 10483, rate = 0.0570
Error Per = 50 || Flushes = 2954 || slicingInterval = 5000
--	Kid = 2 || L1D Acc = 183816, -- Miss = 147368, rate = 0.8017, -- PendHits = 35799, rate = 0.1948-- ResFail = 9577, rate = 0.0521
Error Per = 50 || Flushes = 2947 || slicingInterval = 5000
--	Kid = 3 || L1D Acc = 178710, -- Miss = 143962, rate = 0.8056, -- PendHits = 34086, rate = 0.1907-- ResFail = 10413, rate = 0.0583
Error Per = 50 || Flushes = 2879 || slicingInterval = 5000
--	Kid = 4 || L1D Acc = 180412, -- Miss = 140244, rate = 0.7774, -- PendHits = 37622, rate = 0.2085-- ResFail = 9240, rate = 0.0512
Error Per = 50 || Flushes = 2804 || slicingInterval = 5000
--	Kid = 5 || L1D Acc = 180412, -- Miss = 145340, rate = 0.8056, -- PendHits = 34540, rate = 0.1915-- ResFail = 10003, rate = 0.0554
Error Per = 50 || Flushes = 2906 || slicingInterval = 5000
--	Kid = 6 || L1D Acc = 177008, -- Miss = 140764, rate = 0.7952, -- PendHits = 35713, rate = 0.2018-- ResFail = 10322, rate = 0.0583
Error Per = 50 || Flushes = 2815 || slicingInterval = 5000
--	Kid = 7 || L1D Acc = 183816, -- Miss = 147732, rate = 0.8037, -- PendHits = 35543, rate = 0.1934-- ResFail = 10684, rate = 0.0581
Error Per = 50 || Flushes = 2954 || slicingInterval = 5000
--	Kid = 8 || L1D Acc = 178710, -- Miss = 142870, rate = 0.7995, -- PendHits = 35187, rate = 0.1969-- ResFail = 9726, rate = 0.0544
Error Per = 50 || Flushes = 2857 || slicingInterval = 5000
--	Kid = 9 || L1D Acc = 172852, -- Miss = 144237, rate = 0.8345, -- PendHits = 27858, rate = 0.1612-- ResFail = 12628, rate = 0.0731
Error Per = 50 || Flushes = 2884 || slicingInterval = 5000
--------------------------------------------------------------
L1D access stats (for 9'th SM) 
--	Kid = 0 || L1D Acc = 183816, -- Miss = 148096, rate = 0.8057, -- PendHits = 34914, rate = 0.1899-- ResFail = 8150, rate = 0.0443
Error Per = 50 || Flushes = 2961 || slicingInterval = 5000
--	Kid = 1 || L1D Acc = 183816, -- Miss = 147732, rate = 0.8037, -- PendHits = 35533, rate = 0.1933-- ResFail = 9026, rate = 0.0491
Error Per = 50 || Flushes = 2954 || slicingInterval = 5000
--	Kid = 2 || L1D Acc = 183816, -- Miss = 148096, rate = 0.8057, -- PendHits = 35178, rate = 0.1914-- ResFail = 11601, rate = 0.0631
Error Per = 50 || Flushes = 2961 || slicingInterval = 5000
--	Kid = 3 || L1D Acc = 182114, -- Miss = 144898, rate = 0.7956, -- PendHits = 36565, rate = 0.2008-- ResFail = 10049, rate = 0.0552
Error Per = 50 || Flushes = 2897 || slicingInterval = 5000
--	Kid = 4 || L1D Acc = 180412, -- Miss = 143520, rate = 0.7955, -- PendHits = 36104, rate = 0.2001-- ResFail = 9905, rate = 0.0549
Error Per = 50 || Flushes = 2870 || slicingInterval = 5000
--	Kid = 5 || L1D Acc = 182510, -- Miss = 145574, rate = 0.7976, -- PendHits = 36114, rate = 0.1979-- ResFail = 10850, rate = 0.0594
Error Per = 50 || Flushes = 2911 || slicingInterval = 5000
--	Kid = 6 || L1D Acc = 180412, -- Miss = 144976, rate = 0.8036, -- PendHits = 34903, rate = 0.1935-- ResFail = 9576, rate = 0.0531
Error Per = 50 || Flushes = 2899 || slicingInterval = 5000
--	Kid = 7 || L1D Acc = 183816, -- Miss = 145912, rate = 0.7938, -- PendHits = 37263, rate = 0.2027-- ResFail = 10172, rate = 0.0553
Error Per = 50 || Flushes = 2918 || slicingInterval = 5000
--	Kid = 8 || L1D Acc = 182114, -- Miss = 141258, rate = 0.7757, -- PendHits = 39034, rate = 0.2143-- ResFail = 9120, rate = 0.0501
Error Per = 50 || Flushes = 2825 || slicingInterval = 5000
--	Kid = 9 || L1D Acc = 166462, -- Miss = 138804, rate = 0.8338, -- PendHits = 27219, rate = 0.1635-- ResFail = 11756, rate = 0.0706
Error Per = 50 || Flushes = 2776 || slicingInterval = 5000
--------------------------------------------------------------
L1D access stats (for 10'th SM) 
--	Kid = 0 || L1D Acc = 180412, -- Miss = 142792, rate = 0.7915, -- PendHits = 36946, rate = 0.2048-- ResFail = 9352, rate = 0.0518
Error Per = 50 || Flushes = 2855 || slicingInterval = 5000
--	Kid = 1 || L1D Acc = 182114, -- Miss = 145262, rate = 0.7976, -- PendHits = 36312, rate = 0.1994-- ResFail = 10357, rate = 0.0569
Error Per = 50 || Flushes = 2905 || slicingInterval = 5000
--	Kid = 2 || L1D Acc = 178710, -- Miss = 142870, rate = 0.7995, -- PendHits = 35251, rate = 0.1973-- ResFail = 10921, rate = 0.0611
Error Per = 50 || Flushes = 2857 || slicingInterval = 5000
--	Kid = 3 || L1D Acc = 183816, -- Miss = 146276, rate = 0.7958, -- PendHits = 36998, rate = 0.2013-- ResFail = 10864, rate = 0.0591
Error Per = 50 || Flushes = 2925 || slicingInterval = 5000
--	Kid = 4 || L1D Acc = 182114, -- Miss = 146718, rate = 0.8056, -- PendHits = 34860, rate = 0.1914-- ResFail = 10821, rate = 0.0594
Error Per = 50 || Flushes = 2934 || slicingInterval = 5000
--	Kid = 5 || L1D Acc = 180412, -- Miss = 145704, rate = 0.8076, -- PendHits = 34150, rate = 0.1893-- ResFail = 9539, rate = 0.0529
Error Per = 50 || Flushes = 2914 || slicingInterval = 5000
--	Kid = 6 || L1D Acc = 183602, -- Miss = 146822, rate = 0.7997, -- PendHits = 36034, rate = 0.1963-- ResFail = 9921, rate = 0.0540
Error Per = 50 || Flushes = 2936 || slicingInterval = 5000
--	Kid = 7 || L1D Acc = 180412, -- Miss = 140608, rate = 0.7794, -- PendHits = 37230, rate = 0.2064-- ResFail = 10920, rate = 0.0605
Error Per = 50 || Flushes = 2812 || slicingInterval = 5000
--	Kid = 8 || L1D Acc = 178710, -- Miss = 143962, rate = 0.8056, -- PendHits = 34086, rate = 0.1907-- ResFail = 10641, rate = 0.0595
Error Per = 50 || Flushes = 2879 || slicingInterval = 5000
--	Kid = 9 || L1D Acc = 165818, -- Miss = 135639, rate = 0.8180, -- PendHits = 29072, rate = 0.1753-- ResFail = 10865, rate = 0.0655
Error Per = 50 || Flushes = 2712 || slicingInterval = 5000
--------------------------------------------------------------
L1D access stats (for 11'th SM) 
--	Kid = 0 || L1D Acc = 183816, -- Miss = 148460, rate = 0.8077, -- PendHits = 34816, rate = 0.1894-- ResFail = 9784, rate = 0.0532
Error Per = 50 || Flushes = 2969 || slicingInterval = 5000
--	Kid = 1 || L1D Acc = 180808, -- Miss = 144560, rate = 0.7995, -- PendHits = 35529, rate = 0.1965-- ResFail = 10407, rate = 0.0576
Error Per = 50 || Flushes = 2891 || slicingInterval = 5000
--	Kid = 2 || L1D Acc = 183744, -- Miss = 145476, rate = 0.7917, -- PendHits = 37648, rate = 0.2049-- ResFail = 9803, rate = 0.0534
Error Per = 50 || Flushes = 2909 || slicingInterval = 5000
--	Kid = 3 || L1D Acc = 183816, -- Miss = 148096, rate = 0.8057, -- PendHits = 35081, rate = 0.1908-- ResFail = 9743, rate = 0.0530
Error Per = 50 || Flushes = 2961 || slicingInterval = 5000
--	Kid = 4 || L1D Acc = 183816, -- Miss = 148824, rate = 0.8096, -- PendHits = 34452, rate = 0.1874-- ResFail = 10337, rate = 0.0562
Error Per = 50 || Flushes = 2976 || slicingInterval = 5000
--	Kid = 5 || L1D Acc = 180412, -- Miss = 143156, rate = 0.7935, -- PendHits = 36491, rate = 0.2023-- ResFail = 9031, rate = 0.0501
Error Per = 50 || Flushes = 2863 || slicingInterval = 5000
--	Kid = 6 || L1D Acc = 183816, -- Miss = 147732, rate = 0.8037, -- PendHits = 35461, rate = 0.1929-- ResFail = 11403, rate = 0.0620
Error Per = 50 || Flushes = 2954 || slicingInterval = 5000
--	Kid = 7 || L1D Acc = 183816, -- Miss = 146640, rate = 0.7978, -- PendHits = 36065, rate = 0.1962-- ResFail = 10396, rate = 0.0566
Error Per = 50 || Flushes = 2932 || slicingInterval = 5000
--	Kid = 8 || L1D Acc = 183816, -- Miss = 148824, rate = 0.8096, -- PendHits = 34452, rate = 0.1874-- ResFail = 11314, rate = 0.0616
Error Per = 50 || Flushes = 2976 || slicingInterval = 5000
--	Kid = 9 || L1D Acc = 169106, -- Miss = 140172, rate = 0.8289, -- PendHits = 28189, rate = 0.1667-- ResFail = 10065, rate = 0.0595
Error Per = 50 || Flushes = 2803 || slicingInterval = 5000
--------------------------------------------------------------
L1D access stats (for 12'th SM) 
--	Kid = 0 || L1D Acc = 183816, -- Miss = 140452, rate = 0.7641, -- PendHits = 41566, rate = 0.2261-- ResFail = 8839, rate = 0.0481
Error Per = 50 || Flushes = 2809 || slicingInterval = 5000
--	Kid = 1 || L1D Acc = 182114, -- Miss = 145990, rate = 0.8016, -- PendHits = 35582, rate = 0.1954-- ResFail = 10039, rate = 0.0551
Error Per = 50 || Flushes = 2919 || slicingInterval = 5000
--	Kid = 2 || L1D Acc = 181900, -- Miss = 144716, rate = 0.7956, -- PendHits = 36645, rate = 0.2015-- ResFail = 9632, rate = 0.0530
Error Per = 50 || Flushes = 2894 || slicingInterval = 5000
--	Kid = 3 || L1D Acc = 182114, -- Miss = 145262, rate = 0.7976, -- PendHits = 36249, rate = 0.1990-- ResFail = 10200, rate = 0.0560
Error Per = 50 || Flushes = 2905 || slicingInterval = 5000
--	Kid = 4 || L1D Acc = 183816, -- Miss = 147368, rate = 0.8017, -- PendHits = 35905, rate = 0.1953-- ResFail = 8036, rate = 0.0437
Error Per = 50 || Flushes = 2947 || slicingInterval = 5000
--	Kid = 5 || L1D Acc = 182114, -- Miss = 145626, rate = 0.7996, -- PendHits = 35426, rate = 0.1945-- ResFail = 8310, rate = 0.0456
Error Per = 50 || Flushes = 2912 || slicingInterval = 5000
--	Kid = 6 || L1D Acc = 182042, -- Miss = 146646, rate = 0.8056, -- PendHits = 34805, rate = 0.1912-- ResFail = 9653, rate = 0.0530
Error Per = 50 || Flushes = 2932 || slicingInterval = 5000
--	Kid = 7 || L1D Acc = 182114, -- Miss = 145626, rate = 0.7996, -- PendHits = 35917, rate = 0.1972-- ResFail = 9604, rate = 0.0527
Error Per = 50 || Flushes = 2912 || slicingInterval = 5000
--	Kid = 8 || L1D Acc = 183816, -- Miss = 144092, rate = 0.7839, -- PendHits = 38339, rate = 0.2086-- ResFail = 10527, rate = 0.0573
Error Per = 50 || Flushes = 2881 || slicingInterval = 5000
--	Kid = 9 || L1D Acc = 172530, -- Miss = 145638, rate = 0.8441, -- PendHits = 26484, rate = 0.1535-- ResFail = 9845, rate = 0.0571
Error Per = 50 || Flushes = 2912 || slicingInterval = 5000
--------------------------------------------------------------
L1D access stats (for 13'th SM) 
--	Kid = 0 || L1D Acc = 177008, -- Miss = 140036, rate = 0.7911, -- PendHits = 36060, rate = 0.2037-- ResFail = 9860, rate = 0.0557
Error Per = 50 || Flushes = 2800 || slicingInterval = 5000
--	Kid = 1 || L1D Acc = 182114, -- Miss = 144898, rate = 0.7956, -- PendHits = 36627, rate = 0.2011-- ResFail = 9677, rate = 0.0531
Error Per = 50 || Flushes = 2897 || slicingInterval = 5000
--	Kid = 2 || L1D Acc = 183816, -- Miss = 147732, rate = 0.8037, -- PendHits = 35520, rate = 0.1932-- ResFail = 11196, rate = 0.0609
Error Per = 50 || Flushes = 2954 || slicingInterval = 5000
--	Kid = 3 || L1D Acc = 177008, -- Miss = 138944, rate = 0.7850, -- PendHits = 36618, rate = 0.2069-- ResFail = 10766, rate = 0.0608
Error Per = 50 || Flushes = 2778 || slicingInterval = 5000
--	Kid = 4 || L1D Acc = 183816, -- Miss = 148096, rate = 0.8057, -- PendHits = 35105, rate = 0.1910-- ResFail = 10523, rate = 0.0572
Error Per = 50 || Flushes = 2961 || slicingInterval = 5000
--	Kid = 5 || L1D Acc = 183816, -- Miss = 146640, rate = 0.7978, -- PendHits = 36327, rate = 0.1976-- ResFail = 9857, rate = 0.0536
Error Per = 50 || Flushes = 2932 || slicingInterval = 5000
--	Kid = 6 || L1D Acc = 183816, -- Miss = 148460, rate = 0.8077, -- PendHits = 34787, rate = 0.1892-- ResFail = 8822, rate = 0.0480
Error Per = 50 || Flushes = 2969 || slicingInterval = 5000
--	Kid = 7 || L1D Acc = 178710, -- Miss = 143598, rate = 0.8035, -- PendHits = 34579, rate = 0.1935-- ResFail = 9489, rate = 0.0531
Error Per = 50 || Flushes = 2871 || slicingInterval = 5000
--	Kid = 8 || L1D Acc = 180412, -- Miss = 144248, rate = 0.7995, -- PendHits = 35040, rate = 0.1942-- ResFail = 11457, rate = 0.0635
Error Per = 50 || Flushes = 2884 || slicingInterval = 5000
--	Kid = 9 || L1D Acc = 168140, -- Miss = 141216, rate = 0.8399, -- PendHits = 26351, rate = 0.1567-- ResFail = 11282, rate = 0.0671
Error Per = 50 || Flushes = 2824 || slicingInterval = 5000
--------------------------------------------------------------
L1D access stats (for 14'th SM) 
--	Kid = 0 || L1D Acc = 183816, -- Miss = 148096, rate = 0.8057, -- PendHits = 35179, rate = 0.1914-- ResFail = 9973, rate = 0.0543
Error Per = 50 || Flushes = 2961 || slicingInterval = 5000
--	Kid = 1 || L1D Acc = 178710, -- Miss = 142870, rate = 0.7995, -- PendHits = 35233, rate = 0.1972-- ResFail = 9074, rate = 0.0508
Error Per = 50 || Flushes = 2857 || slicingInterval = 5000
--	Kid = 2 || L1D Acc = 182510, -- Miss = 147030, rate = 0.8056, -- PendHits = 34934, rate = 0.1914-- ResFail = 10090, rate = 0.0553
Error Per = 50 || Flushes = 2940 || slicingInterval = 5000
--	Kid = 3 || L1D Acc = 182510, -- Miss = 145938, rate = 0.7996, -- PendHits = 35853, rate = 0.1964-- ResFail = 8615, rate = 0.0472
Error Per = 50 || Flushes = 2918 || slicingInterval = 5000
--	Kid = 4 || L1D Acc = 178638, -- Miss = 138430, rate = 0.7749, -- PendHits = 38828, rate = 0.2174-- ResFail = 8469, rate = 0.0474
Error Per = 50 || Flushes = 2768 || slicingInterval = 5000
--	Kid = 5 || L1D Acc = 182114, -- Miss = 145262, rate = 0.7976, -- PendHits = 36184, rate = 0.1987-- ResFail = 10784, rate = 0.0592
Error Per = 50 || Flushes = 2905 || slicingInterval = 5000
--	Kid = 6 || L1D Acc = 182114, -- Miss = 145262, rate = 0.7976, -- PendHits = 36182, rate = 0.1987-- ResFail = 9352, rate = 0.0514
Error Per = 50 || Flushes = 2905 || slicingInterval = 5000
--	Kid = 7 || L1D Acc = 182114, -- Miss = 146354, rate = 0.8036, -- PendHits = 34891, rate = 0.1916-- ResFail = 8224, rate = 0.0452
Error Per = 50 || Flushes = 2927 || slicingInterval = 5000
--	Kid = 8 || L1D Acc = 183816, -- Miss = 147368, rate = 0.8017, -- PendHits = 35706, rate = 0.1942-- ResFail = 8003, rate = 0.0435
Error Per = 50 || Flushes = 2947 || slicingInterval = 5000
--	Kid = 9 || L1D Acc = 169106, -- Miss = 139821, rate = 0.8268, -- PendHits = 28722, rate = 0.1698-- ResFail = 10743, rate = 0.0635
Error Per = 50 || Flushes = 2796 || slicingInterval = 5000
--------------------------------------------------------------
L1D access stats (for 15'th SM) 
--	Kid = 0 || L1D Acc = 183816, -- Miss = 146640, rate = 0.7978, -- PendHits = 36341, rate = 0.1977-- ResFail = 10450, rate = 0.0569
Error Per = 50 || Flushes = 2932 || slicingInterval = 5000
--	Kid = 1 || L1D Acc = 180412, -- Miss = 144976, rate = 0.8036, -- PendHits = 34624, rate = 0.1919-- ResFail = 11107, rate = 0.0616
Error Per = 50 || Flushes = 2899 || slicingInterval = 5000
--	Kid = 2 || L1D Acc = 183816, -- Miss = 146640, rate = 0.7978, -- PendHits = 36526, rate = 0.1987-- ResFail = 10050, rate = 0.0547
Error Per = 50 || Flushes = 2932 || slicingInterval = 5000
--	Kid = 3 || L1D Acc = 183602, -- Miss = 144274, rate = 0.7858, -- PendHits = 38275, rate = 0.2085-- ResFail = 9215, rate = 0.0502
Error Per = 50 || Flushes = 2885 || slicingInterval = 5000
--	Kid = 4 || L1D Acc = 183602, -- Miss = 146822, rate = 0.7997, -- PendHits = 35992, rate = 0.1960-- ResFail = 9227, rate = 0.0503
Error Per = 50 || Flushes = 2936 || slicingInterval = 5000
--	Kid = 5 || L1D Acc = 178710, -- Miss = 144326, rate = 0.8076, -- PendHits = 33859, rate = 0.1895-- ResFail = 9956, rate = 0.0557
Error Per = 50 || Flushes = 2886 || slicingInterval = 5000
--	Kid = 6 || L1D Acc = 180412, -- Miss = 145340, rate = 0.8056, -- PendHits = 34521, rate = 0.1913-- ResFail = 10020, rate = 0.0555
Error Per = 50 || Flushes = 2906 || slicingInterval = 5000
--	Kid = 7 || L1D Acc = 183816, -- Miss = 148096, rate = 0.8057, -- PendHits = 35157, rate = 0.1913-- ResFail = 11846, rate = 0.0644
Error Per = 50 || Flushes = 2961 || slicingInterval = 5000
--	Kid = 8 || L1D Acc = 182114, -- Miss = 147082, rate = 0.8076, -- PendHits = 34496, rate = 0.1894-- ResFail = 8969, rate = 0.0492
Error Per = 50 || Flushes = 2941 || slicingInterval = 5000
--	Kid = 9 || L1D Acc = 166784, -- Miss = 138807, rate = 0.8323, -- PendHits = 27182, rate = 0.1630-- ResFail = 12060, rate = 0.0723
Error Per = 50 || Flushes = 2776 || slicingInterval = 5000
--------------------------------------------------------------
L1D access stats (for 16'th SM) 
--	Kid = 0 || L1D Acc = 183816, -- Miss = 145184, rate = 0.7898, -- PendHits = 36957, rate = 0.2011-- ResFail = 9775, rate = 0.0532
Error Per = 50 || Flushes = 2903 || slicingInterval = 5000
--	Kid = 1 || L1D Acc = 178710, -- Miss = 139958, rate = 0.7832, -- PendHits = 37453, rate = 0.2096-- ResFail = 9232, rate = 0.0517
Error Per = 50 || Flushes = 2799 || slicingInterval = 5000
--	Kid = 2 || L1D Acc = 183816, -- Miss = 148096, rate = 0.8057, -- PendHits = 35132, rate = 0.1911-- ResFail = 9630, rate = 0.0524
Error Per = 50 || Flushes = 2961 || slicingInterval = 5000
--	Kid = 3 || L1D Acc = 183816, -- Miss = 147732, rate = 0.8037, -- PendHits = 35541, rate = 0.1934-- ResFail = 10698, rate = 0.0582
Error Per = 50 || Flushes = 2954 || slicingInterval = 5000
--	Kid = 4 || L1D Acc = 177008, -- Miss = 141128, rate = 0.7973, -- PendHits = 34926, rate = 0.1973-- ResFail = 9265, rate = 0.0523
Error Per = 50 || Flushes = 2822 || slicingInterval = 5000
--	Kid = 5 || L1D Acc = 183816, -- Miss = 147368, rate = 0.8017, -- PendHits = 35785, rate = 0.1947-- ResFail = 11444, rate = 0.0623
Error Per = 50 || Flushes = 2947 || slicingInterval = 5000
--	Kid = 6 || L1D Acc = 182114, -- Miss = 141986, rate = 0.7797, -- PendHits = 38471, rate = 0.2112-- ResFail = 8014, rate = 0.0440
Error Per = 50 || Flushes = 2839 || slicingInterval = 5000
--	Kid = 7 || L1D Acc = 183816, -- Miss = 147004, rate = 0.7997, -- PendHits = 36272, rate = 0.1973-- ResFail = 10109, rate = 0.0550
Error Per = 50 || Flushes = 2940 || slicingInterval = 5000
--	Kid = 8 || L1D Acc = 180412, -- Miss = 144976, rate = 0.8036, -- PendHits = 34905, rate = 0.1935-- ResFail = 10583, rate = 0.0587
Error Per = 50 || Flushes = 2899 || slicingInterval = 5000
--	Kid = 9 || L1D Acc = 167750, -- Miss = 141273, rate = 0.8422, -- PendHits = 26062, rate = 0.1554-- ResFail = 10328, rate = 0.0616
Error Per = 50 || Flushes = 2825 || slicingInterval = 5000
--------------------------------------------------------------
L1D access stats (for 17'th SM) 
--	Kid = 0 || L1D Acc = 177008, -- Miss = 141856, rate = 0.8014, -- PendHits = 34565, rate = 0.1953-- ResFail = 8639, rate = 0.0488
Error Per = 50 || Flushes = 2837 || slicingInterval = 5000
--	Kid = 1 || L1D Acc = 183816, -- Miss = 146640, rate = 0.7978, -- PendHits = 36524, rate = 0.1987-- ResFail = 12132, rate = 0.0660
Error Per = 50 || Flushes = 2932 || slicingInterval = 5000
--	Kid = 2 || L1D Acc = 177008, -- Miss = 142220, rate = 0.8035, -- PendHits = 34227, rate = 0.1934-- ResFail = 9085, rate = 0.0513
Error Per = 50 || Flushes = 2844 || slicingInterval = 5000
--	Kid = 3 || L1D Acc = 180412, -- Miss = 144248, rate = 0.7995, -- PendHits = 35632, rate = 0.1975-- ResFail = 10145, rate = 0.0562
Error Per = 50 || Flushes = 2884 || slicingInterval = 5000
--	Kid = 4 || L1D Acc = 178710, -- Miss = 140686, rate = 0.7872, -- PendHits = 36504, rate = 0.2043-- ResFail = 8600, rate = 0.0481
Error Per = 50 || Flushes = 2813 || slicingInterval = 5000
--	Kid = 5 || L1D Acc = 183816, -- Miss = 145548, rate = 0.7918, -- PendHits = 37468, rate = 0.2038-- ResFail = 11162, rate = 0.0607
Error Per = 50 || Flushes = 2910 || slicingInterval = 5000
--	Kid = 6 || L1D Acc = 179106, -- Miss = 143182, rate = 0.7994, -- PendHits = 35394, rate = 0.1976-- ResFail = 8786, rate = 0.0491
Error Per = 50 || Flushes = 2863 || slicingInterval = 5000
--	Kid = 7 || L1D Acc = 182114, -- Miss = 145626, rate = 0.7996, -- PendHits = 35930, rate = 0.1973-- ResFail = 10361, rate = 0.0569
Error Per = 50 || Flushes = 2912 || slicingInterval = 5000
--	Kid = 8 || L1D Acc = 183816, -- Miss = 147368, rate = 0.8017, -- PendHits = 35792, rate = 0.1947-- ResFail = 9178, rate = 0.0499
Error Per = 50 || Flushes = 2947 || slicingInterval = 5000
--	Kid = 9 || L1D Acc = 165818, -- Miss = 140553, rate = 0.8476, -- PendHits = 24744, rate = 0.1492-- ResFail = 9522, rate = 0.0574
Error Per = 50 || Flushes = 2811 || slicingInterval = 5000
--------------------------------------------------------------
L1D access stats (for 18'th SM) 
--	Kid = 0 || L1D Acc = 178710, -- Miss = 139230, rate = 0.7791, -- PendHits = 37339, rate = 0.2089-- ResFail = 9873, rate = 0.0552
Error Per = 50 || Flushes = 2784 || slicingInterval = 5000
--	Kid = 1 || L1D Acc = 182114, -- Miss = 145990, rate = 0.8016, -- PendHits = 35541, rate = 0.1952-- ResFail = 9490, rate = 0.0521
Error Per = 50 || Flushes = 2919 || slicingInterval = 5000
--	Kid = 2 || L1D Acc = 182114, -- Miss = 147446, rate = 0.8096, -- PendHits = 34133, rate = 0.1874-- ResFail = 10667, rate = 0.0586
Error Per = 50 || Flushes = 2948 || slicingInterval = 5000
--	Kid = 3 || L1D Acc = 183816, -- Miss = 147732, rate = 0.8037, -- PendHits = 35471, rate = 0.1930-- ResFail = 10665, rate = 0.0580
Error Per = 50 || Flushes = 2954 || slicingInterval = 5000
--	Kid = 4 || L1D Acc = 183816, -- Miss = 148460, rate = 0.8077, -- PendHits = 34815, rate = 0.1894-- ResFail = 8106, rate = 0.0441
Error Per = 50 || Flushes = 2969 || slicingInterval = 5000
--	Kid = 5 || L1D Acc = 180412, -- Miss = 143520, rate = 0.7955, -- PendHits = 36198, rate = 0.2006-- ResFail = 9255, rate = 0.0513
Error Per = 50 || Flushes = 2870 || slicingInterval = 5000
--	Kid = 6 || L1D Acc = 180412, -- Miss = 141700, rate = 0.7854, -- PendHits = 37770, rate = 0.2094-- ResFail = 8773, rate = 0.0486
Error Per = 50 || Flushes = 2834 || slicingInterval = 5000
--	Kid = 7 || L1D Acc = 178496, -- Miss = 141232, rate = 0.7912, -- PendHits = 36028, rate = 0.2018-- ResFail = 7644, rate = 0.0428
Error Per = 50 || Flushes = 2824 || slicingInterval = 5000
--	Kid = 8 || L1D Acc = 183816, -- Miss = 148096, rate = 0.8057, -- PendHits = 35178, rate = 0.1914-- ResFail = 11377, rate = 0.0619
Error Per = 50 || Flushes = 2961 || slicingInterval = 5000
--	Kid = 9 || L1D Acc = 167496, -- Miss = 142263, rate = 0.8494, -- PendHits = 24842, rate = 0.1483-- ResFail = 10135, rate = 0.0605
Error Per = 50 || Flushes = 2845 || slicingInterval = 5000
--------------------------------------------------------------
L1D access stats (for 19'th SM) 
--	Kid = 0 || L1D Acc = 178710, -- Miss = 142142, rate = 0.7954, -- PendHits = 35979, rate = 0.2013-- ResFail = 10754, rate = 0.0602
Error Per = 50 || Flushes = 2842 || slicingInterval = 5000
--	Kid = 1 || L1D Acc = 183816, -- Miss = 147004, rate = 0.7997, -- PendHits = 36267, rate = 0.1973-- ResFail = 9293, rate = 0.0506
Error Per = 50 || Flushes = 2940 || slicingInterval = 5000
--	Kid = 2 || L1D Acc = 177008, -- Miss = 136032, rate = 0.7685, -- PendHits = 39928, rate = 0.2256-- ResFail = 10009, rate = 0.0565
Error Per = 50 || Flushes = 2720 || slicingInterval = 5000
--	Kid = 3 || L1D Acc = 183816, -- Miss = 144820, rate = 0.7879, -- PendHits = 38220, rate = 0.2079-- ResFail = 10276, rate = 0.0559
Error Per = 50 || Flushes = 2896 || slicingInterval = 5000
--	Kid = 4 || L1D Acc = 180412, -- Miss = 143520, rate = 0.7955, -- PendHits = 36094, rate = 0.2001-- ResFail = 7899, rate = 0.0438
Error Per = 50 || Flushes = 2870 || slicingInterval = 5000
--	Kid = 5 || L1D Acc = 182114, -- Miss = 145262, rate = 0.7976, -- PendHits = 36218, rate = 0.1989-- ResFail = 9134, rate = 0.0502
Error Per = 50 || Flushes = 2905 || slicingInterval = 5000
--	Kid = 6 || L1D Acc = 183816, -- Miss = 146276, rate = 0.7958, -- PendHits = 36826, rate = 0.2003-- ResFail = 12082, rate = 0.0657
Error Per = 50 || Flushes = 2925 || slicingInterval = 5000
--	Kid = 7 || L1D Acc = 182114, -- Miss = 143078, rate = 0.7857, -- PendHits = 37295, rate = 0.2048-- ResFail = 9560, rate = 0.0525
Error Per = 50 || Flushes = 2861 || slicingInterval = 5000
--	Kid = 8 || L1D Acc = 183816, -- Miss = 144456, rate = 0.7859, -- PendHits = 38623, rate = 0.2101-- ResFail = 9188, rate = 0.0500
Error Per = 50 || Flushes = 2889 || slicingInterval = 5000
--	Kid = 9 || L1D Acc = 169496, -- Miss = 143976, rate = 0.8494, -- PendHits = 25120, rate = 0.1482-- ResFail = 9786, rate = 0.0577
Error Per = 50 || Flushes = 2879 || slicingInterval = 5000
--------------------------------------------------------------
L1D access stats (for 20'th SM) 
--	Kid = 0 || L1D Acc = 178710, -- Miss = 138502, rate = 0.7750, -- PendHits = 39465, rate = 0.2208-- ResFail = 10859, rate = 0.0608
Error Per = 50 || Flushes = 2770 || slicingInterval = 5000
--	Kid = 1 || L1D Acc = 178710, -- Miss = 143234, rate = 0.8015, -- PendHits = 34891, rate = 0.1952-- ResFail = 9064, rate = 0.0507
Error Per = 50 || Flushes = 2864 || slicingInterval = 5000
--	Kid = 2 || L1D Acc = 183816, -- Miss = 146276, rate = 0.7958, -- PendHits = 35738, rate = 0.1944-- ResFail = 7923, rate = 0.0431
Error Per = 50 || Flushes = 2925 || slicingInterval = 5000
--	Kid = 3 || L1D Acc = 178638, -- Miss = 140614, rate = 0.7871, -- PendHits = 37304, rate = 0.2088-- ResFail = 10946, rate = 0.0613
Error Per = 50 || Flushes = 2812 || slicingInterval = 5000
--	Kid = 4 || L1D Acc = 183816, -- Miss = 145548, rate = 0.7918, -- PendHits = 37479, rate = 0.2039-- ResFail = 10621, rate = 0.0578
Error Per = 50 || Flushes = 2910 || slicingInterval = 5000
--	Kid = 5 || L1D Acc = 183744, -- Miss = 146568, rate = 0.7977, -- PendHits = 36632, rate = 0.1994-- ResFail = 9269, rate = 0.0504
Error Per = 50 || Flushes = 2931 || slicingInterval = 5000
--	Kid = 6 || L1D Acc = 178710, -- Miss = 142506, rate = 0.7974, -- PendHits = 35522, rate = 0.1988-- ResFail = 10134, rate = 0.0567
Error Per = 50 || Flushes = 2850 || slicingInterval = 5000
--	Kid = 7 || L1D Acc = 183816, -- Miss = 148096, rate = 0.8057, -- PendHits = 34746, rate = 0.1890-- ResFail = 12748, rate = 0.0694
Error Per = 50 || Flushes = 2961 || slicingInterval = 5000
--	Kid = 8 || L1D Acc = 180412, -- Miss = 143884, rate = 0.7975, -- PendHits = 35875, rate = 0.1989-- ResFail = 8805, rate = 0.0488
Error Per = 50 || Flushes = 2877 || slicingInterval = 5000
--	Kid = 9 || L1D Acc = 163564, -- Miss = 138075, rate = 0.8442, -- PendHits = 25042, rate = 0.1531-- ResFail = 10959, rate = 0.0670
Error Per = 50 || Flushes = 2761 || slicingInterval = 5000
--------------------------------------------------------------
L1D access stats (for 21'th SM) 
--	Kid = 0 || L1D Acc = 177008, -- Miss = 140036, rate = 0.7911, -- PendHits = 36102, rate = 0.2040-- ResFail = 9996, rate = 0.0565
Error Per = 50 || Flushes = 2800 || slicingInterval = 5000
--	Kid = 1 || L1D Acc = 183816, -- Miss = 147732, rate = 0.8037, -- PendHits = 35096, rate = 0.1909-- ResFail = 9913, rate = 0.0539
Error Per = 50 || Flushes = 2954 || slicingInterval = 5000
--	Kid = 2 || L1D Acc = 183816, -- Miss = 147732, rate = 0.8037, -- PendHits = 35378, rate = 0.1925-- ResFail = 8765, rate = 0.0477
Error Per = 50 || Flushes = 2954 || slicingInterval = 5000
--	Kid = 3 || L1D Acc = 180412, -- Miss = 144248, rate = 0.7995, -- PendHits = 35620, rate = 0.1974-- ResFail = 11372, rate = 0.0630
Error Per = 50 || Flushes = 2884 || slicingInterval = 5000
--	Kid = 4 || L1D Acc = 183816, -- Miss = 143364, rate = 0.7799, -- PendHits = 39660, rate = 0.2158-- ResFail = 8832, rate = 0.0480
Error Per = 50 || Flushes = 2867 || slicingInterval = 5000
--	Kid = 5 || L1D Acc = 182114, -- Miss = 144534, rate = 0.7936, -- PendHits = 36878, rate = 0.2025-- ResFail = 8832, rate = 0.0485
Error Per = 50 || Flushes = 2890 || slicingInterval = 5000
--	Kid = 6 || L1D Acc = 183816, -- Miss = 147732, rate = 0.8037, -- PendHits = 35221, rate = 0.1916-- ResFail = 8373, rate = 0.0456
Error Per = 50 || Flushes = 2954 || slicingInterval = 5000
--	Kid = 7 || L1D Acc = 183816, -- Miss = 147004, rate = 0.7997, -- PendHits = 36033, rate = 0.1960-- ResFail = 10452, rate = 0.0569
Error Per = 50 || Flushes = 2940 || slicingInterval = 5000
--	Kid = 8 || L1D Acc = 178710, -- Miss = 142506, rate = 0.7974, -- PendHits = 35539, rate = 0.1989-- ResFail = 9429, rate = 0.0528
Error Per = 50 || Flushes = 2850 || slicingInterval = 5000
--	Kid = 9 || L1D Acc = 166276, -- Miss = 139032, rate = 0.8362, -- PendHits = 26877, rate = 0.1616-- ResFail = 11285, rate = 0.0679
Error Per = 50 || Flushes = 2780 || slicingInterval = 5000
--------------------------------------------------------------
L1D access stats (for 22'th SM) 
--	Kid = 0 || L1D Acc = 182114, -- Miss = 144534, rate = 0.7936, -- PendHits = 37042, rate = 0.2034-- ResFail = 9460, rate = 0.0519
Error Per = 50 || Flushes = 2890 || slicingInterval = 5000
--	Kid = 1 || L1D Acc = 180412, -- Miss = 144976, rate = 0.8036, -- PendHits = 34711, rate = 0.1924-- ResFail = 9991, rate = 0.0554
Error Per = 50 || Flushes = 2899 || slicingInterval = 5000
--	Kid = 2 || L1D Acc = 182114, -- Miss = 147446, rate = 0.8096, -- PendHits = 34133, rate = 0.1874-- ResFail = 10443, rate = 0.0573
Error Per = 50 || Flushes = 2948 || slicingInterval = 5000
--	Kid = 3 || L1D Acc = 177008, -- Miss = 137124, rate = 0.7747, -- PendHits = 37598, rate = 0.2124-- ResFail = 11264, rate = 0.0636
Error Per = 50 || Flushes = 2742 || slicingInterval = 5000
--	Kid = 4 || L1D Acc = 182114, -- Miss = 144898, rate = 0.7956, -- PendHits = 36176, rate = 0.1986-- ResFail = 9316, rate = 0.0512
Error Per = 50 || Flushes = 2897 || slicingInterval = 5000
--	Kid = 5 || L1D Acc = 180412, -- Miss = 145340, rate = 0.8056, -- PendHits = 34504, rate = 0.1913-- ResFail = 9422, rate = 0.0522
Error Per = 50 || Flushes = 2906 || slicingInterval = 5000
--	Kid = 6 || L1D Acc = 183816, -- Miss = 142636, rate = 0.7760, -- PendHits = 39851, rate = 0.2168-- ResFail = 9562, rate = 0.0520
Error Per = 50 || Flushes = 2852 || slicingInterval = 5000
--	Kid = 7 || L1D Acc = 182510, -- Miss = 147030, rate = 0.8056, -- PendHits = 34917, rate = 0.1913-- ResFail = 10422, rate = 0.0571
Error Per = 50 || Flushes = 2940 || slicingInterval = 5000
--	Kid = 8 || L1D Acc = 183816, -- Miss = 147004, rate = 0.7997, -- PendHits = 36218, rate = 0.1970-- ResFail = 10969, rate = 0.0597
Error Per = 50 || Flushes = 2940 || slicingInterval = 5000
--	Kid = 9 || L1D Acc = 168784, -- Miss = 142626, rate = 0.8450, -- PendHits = 25748, rate = 0.1526-- ResFail = 11523, rate = 0.0683
Error Per = 50 || Flushes = 2852 || slicingInterval = 5000
--------------------------------------------------------------
L1D access stats (for 23'th SM) 
--	Kid = 0 || L1D Acc = 182438, -- Miss = 147030, rate = 0.8059, -- PendHits = 34838, rate = 0.1910-- ResFail = 9657, rate = 0.0529
Error Per = 50 || Flushes = 2940 || slicingInterval = 5000
--	Kid = 1 || L1D Acc = 182114, -- Miss = 146354, rate = 0.8036, -- PendHits = 35083, rate = 0.1926-- ResFail = 11346, rate = 0.0623
Error Per = 50 || Flushes = 2927 || slicingInterval = 5000
--	Kid = 2 || L1D Acc = 177008, -- Miss = 137124, rate = 0.7747, -- PendHits = 38028, rate = 0.2148-- ResFail = 10123, rate = 0.0572
Error Per = 50 || Flushes = 2742 || slicingInterval = 5000
--	Kid = 3 || L1D Acc = 183816, -- Miss = 146640, rate = 0.7978, -- PendHits = 36534, rate = 0.1988-- ResFail = 10211, rate = 0.0556
Error Per = 50 || Flushes = 2932 || slicingInterval = 5000
--	Kid = 4 || L1D Acc = 183816, -- Miss = 145912, rate = 0.7938, -- PendHits = 37240, rate = 0.2026-- ResFail = 8110, rate = 0.0441
Error Per = 50 || Flushes = 2918 || slicingInterval = 5000
--	Kid = 5 || L1D Acc = 183816, -- Miss = 146640, rate = 0.7978, -- PendHits = 36536, rate = 0.1988-- ResFail = 9573, rate = 0.0521
Error Per = 50 || Flushes = 2932 || slicingInterval = 5000
--	Kid = 6 || L1D Acc = 177008, -- Miss = 140400, rate = 0.7932, -- PendHits = 35829, rate = 0.2024-- ResFail = 10488, rate = 0.0593
Error Per = 50 || Flushes = 2808 || slicingInterval = 5000
--	Kid = 7 || L1D Acc = 183816, -- Miss = 144456, rate = 0.7859, -- PendHits = 37663, rate = 0.2049-- ResFail = 9972, rate = 0.0542
Error Per = 50 || Flushes = 2889 || slicingInterval = 5000
--	Kid = 8 || L1D Acc = 178820, -- Miss = 143728, rate = 0.8038, -- PendHits = 34248, rate = 0.1915-- ResFail = 10198, rate = 0.0570
Error Per = 50 || Flushes = 2874 || slicingInterval = 5000
--	Kid = 9 || L1D Acc = 163242, -- Miss = 138774, rate = 0.8501, -- PendHits = 24116, rate = 0.1477-- ResFail = 11686, rate = 0.0716
Error Per = 50 || Flushes = 2775 || slicingInterval = 5000
--------------------------------------------------------------
L1D access stats (for 24'th SM) 
--	Kid = 0 || L1D Acc = 183816, -- Miss = 147732, rate = 0.8037, -- PendHits = 35542, rate = 0.1934-- ResFail = 9171, rate = 0.0499
Error Per = 50 || Flushes = 2954 || slicingInterval = 5000
--	Kid = 1 || L1D Acc = 183602, -- Miss = 147550, rate = 0.8036, -- PendHits = 35409, rate = 0.1929-- ResFail = 9213, rate = 0.0502
Error Per = 50 || Flushes = 2951 || slicingInterval = 5000
--	Kid = 2 || L1D Acc = 183816, -- Miss = 147004, rate = 0.7997, -- PendHits = 36050, rate = 0.1961-- ResFail = 10802, rate = 0.0588
Error Per = 50 || Flushes = 2940 || slicingInterval = 5000
--	Kid = 3 || L1D Acc = 183816, -- Miss = 145184, rate = 0.7898, -- PendHits = 38088, rate = 0.2072-- ResFail = 10403, rate = 0.0566
Error Per = 50 || Flushes = 2903 || slicingInterval = 5000
--	Kid = 4 || L1D Acc = 180412, -- Miss = 143156, rate = 0.7935, -- PendHits = 35888, rate = 0.1989-- ResFail = 8988, rate = 0.0498
Error Per = 50 || Flushes = 2863 || slicingInterval = 5000
--	Kid = 5 || L1D Acc = 183816, -- Miss = 145184, rate = 0.7898, -- PendHits = 37957, rate = 0.2065-- ResFail = 10212, rate = 0.0556
Error Per = 50 || Flushes = 2903 || slicingInterval = 5000
--	Kid = 6 || L1D Acc = 183816, -- Miss = 148824, rate = 0.8096, -- PendHits = 34452, rate = 0.1874-- ResFail = 9320, rate = 0.0507
Error Per = 50 || Flushes = 2976 || slicingInterval = 5000
--	Kid = 7 || L1D Acc = 178710, -- Miss = 142870, rate = 0.7995, -- PendHits = 35134, rate = 0.1966-- ResFail = 9702, rate = 0.0543
Error Per = 50 || Flushes = 2857 || slicingInterval = 5000
--	Kid = 8 || L1D Acc = 180412, -- Miss = 142064, rate = 0.7874, -- PendHits = 37578, rate = 0.2083-- ResFail = 8385, rate = 0.0465
Error Per = 50 || Flushes = 2841 || slicingInterval = 5000
--	Kid = 9 || L1D Acc = 171281, -- Miss = 141294, rate = 0.8249, -- PendHits = 28715, rate = 0.1676-- ResFail = 11399, rate = 0.0666
Error Per = 50 || Flushes = 2825 || slicingInterval = 5000
--------------------------------------------------------------
L1D access stats (for 25'th SM) 
--	Kid = 0 || L1D Acc = 178710, -- Miss = 141050, rate = 0.7893, -- PendHits = 36587, rate = 0.2047-- ResFail = 11741, rate = 0.0657
Error Per = 50 || Flushes = 2821 || slicingInterval = 5000
--	Kid = 1 || L1D Acc = 183816, -- Miss = 147004, rate = 0.7997, -- PendHits = 36112, rate = 0.1965-- ResFail = 10251, rate = 0.0558
Error Per = 50 || Flushes = 2940 || slicingInterval = 5000
--	Kid = 2 || L1D Acc = 180412, -- Miss = 142792, rate = 0.7915, -- PendHits = 36888, rate = 0.2045-- ResFail = 11935, rate = 0.0662
Error Per = 50 || Flushes = 2855 || slicingInterval = 5000
[...]

------------------------------------------------------------------------

Row_Buffer_Locality = 0.831328
Row_Buffer_Locality_read = 0.833308
Row_Buffer_Locality_write = 0.425315
Bank_Level_Parallism = 2.270052
Bank_Level_Parallism_Col = 1.836041
Bank_Level_Parallism_Ready = 1.241673
write_to_read_ratio_blp_rw_average = 0.030400
GrpLevelPara = 1.710971 

BW Util details:
bwutil = 0.448022 
total_CMD = 24158030 
util_bw = 10823328 
Wasted_Col = 6134983 
Wasted_Row = 2488736 
Idle = 4710983 

BW Util Bottlenecks: 
RCDc_limit = 6076630 
RCDWRc_limit = 45934 
WTRc_limit = 275289 
RTWc_limit = 324568 
CCDLc_limit = 2053043 
rwq = 0 
CCDLc_limit_alone = 2015624 
WTRc_limit_alone = 263126 
RTWc_limit_alone = 299312 

Commands details: 
total_CMD = 24158030 
n_nop = 20569225 
Read = 2654071 
Write = 0 
L2_Alloc = 0 
L2_WB = 51761 
n_act = 449853 
n_pre = 449837 
n_ref = 0 
n_req = 2667012 
total_req = 2705832 

Dual Bus Interface Util: 
issued_total_row = 899690 
issued_total_col = 2705832 
Row_Bus_Util =  0.037242 
CoL_Bus_Util = 0.112005 
Either_Row_CoL_Bus_Util = 0.148555 
Issued_on_Two_Bus_Simul_Util = 0.000692 
issued_two_Eff = 0.004658 
queue_avg = 4.554192 


dram_util_bins: 0 0 0 0 0 0 0 0 0 0
dram_eff_bins: 0 0 0 0 0 0 0 0 0 0
mrqq: max=64 avg=4.55419
Memory Partition 7: 
Cache L2_bank_014:
MSHR contents

Cache L2_bank_015:
MSHR contents

In Dram Latency Queue (total = 0): 
DRAM[7]: 16 bks, busW=2 BL=16 CL=24, tRRD=12 tCCD=4, tRCD=24 tRAS=55 tRP=24 tRC=78
n_cmd=24158030 n_nop=20568990 n_act=449933 n_pre=449917 n_ref_event=0 n_req=2667056 n_rd=2654113 n_rd_L2_A=0 n_write=0 n_wr_bk=51769 bw_util=0.448
n_activity=21447277 dram_eff=0.5047
bk0: 166192a 21591425i bk1: 166215a 21604656i bk2: 165903a 21595696i bk3: 165966a 21607705i bk4: 165852a 21605808i bk5: 165854a 21615744i bk6: 165765a 21595775i bk7: 165751a 21622526i bk8: 165792a 21592045i bk9: 165812a 21612374i bk10: 165826a 21594911i bk11: 165843a 21607565i bk12: 165861a 21608530i bk13: 165839a 21603981i bk14: 165818a 21603910i bk15: 165824a 21618892i 

------------------------------------------------------------------------

Row_Buffer_Locality = 0.831301
Row_Buffer_Locality_read = 0.833282
Row_Buffer_Locality_write = 0.425172
Bank_Level_Parallism = 2.269797
Bank_Level_Parallism_Col = 1.836262
Bank_Level_Parallism_Ready = 1.241121
write_to_read_ratio_blp_rw_average = 0.030772
GrpLevelPara = 1.710667 

BW Util details:
bwutil = 0.448030 
total_CMD = 24158030 
util_bw = 10823528 
Wasted_Col = 6134186 
Wasted_Row = 2489775 
Idle = 4710541 

BW Util Bottlenecks: 
RCDc_limit = 6071504 
RCDWRc_limit = 46743 
WTRc_limit = 275800 
RTWc_limit = 326293 
CCDLc_limit = 2055182 
rwq = 0 
CCDLc_limit_alone = 2016957 
WTRc_limit_alone = 263352 
RTWc_limit_alone = 300516 

Commands details: 
total_CMD = 24158030 
n_nop = 20568990 
Read = 2654113 
Write = 0 
L2_Alloc = 0 
L2_WB = 51769 
n_act = 449933 
n_pre = 449917 
n_ref = 0 
n_req = 2667056 
total_req = 2705882 

Dual Bus Interface Util: 
issued_total_row = 899850 
issued_total_col = 2705882 
Row_Bus_Util =  0.037248 
CoL_Bus_Util = 0.112008 
Either_Row_CoL_Bus_Util = 0.148565 
Issued_on_Two_Bus_Simul_Util = 0.000691 
issued_two_Eff = 0.004651 
queue_avg = 4.555593 


dram_util_bins: 0 0 0 0 0 0 0 0 0 0
dram_eff_bins: 0 0 0 0 0 0 0 0 0 0
mrqq: max=64 avg=4.55559
Memory Partition 8: 
Cache L2_bank_016:
MSHR contents

Cache L2_bank_017:
MSHR contents

In Dram Latency Queue (total = 0): 
DRAM[8]: 16 bks, busW=2 BL=16 CL=24, tRRD=12 tCCD=4, tRCD=24 tRAS=55 tRP=24 tRC=78
n_cmd=24158030 n_nop=20569585 n_act=449728 n_pre=449712 n_ref_event=0 n_req=2667006 n_rd=2654061 n_rd_L2_A=0 n_write=0 n_wr_bk=51771 bw_util=0.448
n_activity=21442655 dram_eff=0.5048
bk0: 166193a 21587263i bk1: 166170a 21615588i bk2: 165958a 21600275i bk3: 165961a 21614131i bk4: 165843a 21591198i bk5: 165885a 21620399i bk6: 165824a 21603754i bk7: 165824a 21619958i bk8: 165797a 21591942i bk9: 165861a 21600248i bk10: 165751a 21592370i bk11: 165756a 21617547i bk12: 165808a 21599613i bk13: 165821a 21611113i bk14: 165789a 21593837i bk15: 165820a 21608442i 

------------------------------------------------------------------------

Row_Buffer_Locality = 0.831375
Row_Buffer_Locality_read = 0.833376
Row_Buffer_Locality_write = 0.421166
Bank_Level_Parallism = 2.272836
Bank_Level_Parallism_Col = 1.839014
Bank_Level_Parallism_Ready = 1.242727
write_to_read_ratio_blp_rw_average = 0.030558
GrpLevelPara = 1.713092 

BW Util details:
bwutil = 0.448022 
total_CMD = 24158030 
util_bw = 10823328 
Wasted_Col = 6120555 
Wasted_Row = 2487568 
Idle = 4726579 

BW Util Bottlenecks: 
RCDc_limit = 6061671 
RCDWRc_limit = 46873 
WTRc_limit = 277039 
RTWc_limit = 324785 
CCDLc_limit = 2049771 
rwq = 0 
CCDLc_limit_alone = 2010847 
WTRc_limit_alone = 264237 
RTWc_limit_alone = 298663 

Commands details: 
total_CMD = 24158030 
n_nop = 20569585 
Read = 2654061 
Write = 0 
L2_Alloc = 0 
L2_WB = 51771 
n_act = 449728 
n_pre = 449712 
n_ref = 0 
n_req = 2667006 
total_req = 2705832 

Dual Bus Interface Util: 
issued_total_row = 899440 
issued_total_col = 2705832 
Row_Bus_Util =  0.037232 
CoL_Bus_Util = 0.112005 
Either_Row_CoL_Bus_Util = 0.148540 
Issued_on_Two_Bus_Simul_Util = 0.000697 
issued_two_Eff = 0.004689 
queue_avg = 4.562171 


dram_util_bins: 0 0 0 0 0 0 0 0 0 0
dram_eff_bins: 0 0 0 0 0 0 0 0 0 0
mrqq: max=64 avg=4.56217
Memory Partition 9: 
Cache L2_bank_018:
MSHR contents

Cache L2_bank_019:
MSHR contents

In Dram Latency Queue (total = 0): 
DRAM[9]: 16 bks, busW=2 BL=16 CL=24, tRRD=12 tCCD=4, tRCD=24 tRAS=55 tRP=24 tRC=78
n_cmd=24158030 n_nop=20571046 n_act=448674 n_pre=448658 n_ref_event=0 n_req=2667204 n_rd=2654260 n_rd_L2_A=0 n_write=0 n_wr_bk=51770 bw_util=0.4481
n_activity=21436334 dram_eff=0.5049
bk0: 166202a 21592160i bk1: 166170a 21606752i bk2: 165950a 21605053i bk3: 165972a 21610288i bk4: 165870a 21606068i bk5: 165863a 21625631i bk6: 165817a 21612975i bk7: 165866a 21631817i bk8: 165856a 21607236i bk9: 165867a 21615118i bk10: 165773a 21600660i bk11: 165795a 21621155i bk12: 165764a 21601776i bk13: 165800a 21619705i bk14: 165870a 21603231i bk15: 165825a 21618947i 

------------------------------------------------------------------------

Row_Buffer_Locality = 0.831783
Row_Buffer_Locality_read = 0.833781
Row_Buffer_Locality_write = 0.421972
Bank_Level_Parallism = 2.268429
Bank_Level_Parallism_Col = 1.835736
Bank_Level_Parallism_Ready = 1.240788
write_to_read_ratio_blp_rw_average = 0.030511
GrpLevelPara = 1.710425 

BW Util details:
bwutil = 0.448055 
total_CMD = 24158030 
util_bw = 10824120 
Wasted_Col = 6117736 
Wasted_Row = 2480471 
Idle = 4735703 

BW Util Bottlenecks: 
RCDc_limit = 6050998 
RCDWRc_limit = 46188 
WTRc_limit = 276087 
RTWc_limit = 324343 
CCDLc_limit = 2054193 
rwq = 0 
CCDLc_limit_alone = 2016746 
WTRc_limit_alone = 263577 
RTWc_limit_alone = 299406 

Commands details: 
total_CMD = 24158030 
n_nop = 20571046 
Read = 2654260 
Write = 0 
L2_Alloc = 0 
L2_WB = 51770 
n_act = 448674 
n_pre = 448658 
n_ref = 0 
n_req = 2667204 
total_req = 2706030 

Dual Bus Interface Util: 
issued_total_row = 897332 
issued_total_col = 2706030 
Row_Bus_Util =  0.037144 
CoL_Bus_Util = 0.112014 
Either_Row_CoL_Bus_Util = 0.148480 
Issued_on_Two_Bus_Simul_Util = 0.000678 
issued_two_Eff = 0.004566 
queue_avg = 4.556547 


dram_util_bins: 0 0 0 0 0 0 0 0 0 0
dram_eff_bins: 0 0 0 0 0 0 0 0 0 0
mrqq: max=64 avg=4.55655
Memory Partition 10: 
Cache L2_bank_020:
MSHR contents

Cache L2_bank_021:
MSHR contents

In Dram Latency Queue (total = 0): 
DRAM[10]: 16 bks, busW=2 BL=16 CL=24, tRRD=12 tCCD=4, tRCD=24 tRAS=55 tRP=24 tRC=78
n_cmd=24158030 n_nop=20571985 n_act=448294 n_pre=448278 n_ref_event=0 n_req=2667208 n_rd=2654265 n_rd_L2_A=0 n_write=0 n_wr_bk=51769 bw_util=0.4481
n_activity=21427910 dram_eff=0.5051
bk0: 166224a 21588809i bk1: 166204a 21605525i bk2: 165960a 21607681i bk3: 165936a 21610778i bk4: 165843a 21618161i bk5: 165817a 21625940i bk6: 165823a 21618443i bk7: 165798a 21636710i bk8: 165863a 21594990i bk9: 165849a 21615975i bk10: 165819a 21612598i bk11: 165814a 21619872i bk12: 165819a 21600682i bk13: 165831a 21619082i bk14: 165841a 21593320i bk15: 165824a 21620314i 

------------------------------------------------------------------------

Row_Buffer_Locality = 0.831925
Row_Buffer_Locality_read = 0.833939
Row_Buffer_Locality_write = 0.419068
Bank_Level_Parallism = 2.268927
Bank_Level_Parallism_Col = 1.835332
Bank_Level_Parallism_Ready = 1.240749
write_to_read_ratio_blp_rw_average = 0.030578
GrpLevelPara = 1.710521 

BW Util details:
bwutil = 0.448055 
total_CMD = 24158030 
util_bw = 10824136 
Wasted_Col = 6114897 
Wasted_Row = 2474741 
Idle = 4744256 

BW Util Bottlenecks: 
RCDc_limit = 6042375 
RCDWRc_limit = 47320 
WTRc_limit = 281431 
RTWc_limit = 325214 
CCDLc_limit = 2055533 
rwq = 0 
CCDLc_limit_alone = 2017636 
WTRc_limit_alone = 268587 
RTWc_limit_alone = 300161 

Commands details: 
total_CMD = 24158030 
n_nop = 20571985 
Read = 2654265 
Write = 0 
L2_Alloc = 0 
L2_WB = 51769 
n_act = 448294 
n_pre = 448278 
n_ref = 0 
n_req = 2667208 
total_req = 2706034 

Dual Bus Interface Util: 
issued_total_row = 896572 
issued_total_col = 2706034 
Row_Bus_Util =  0.037113 
CoL_Bus_Util = 0.112014 
Either_Row_CoL_Bus_Util = 0.148441 
Issued_on_Two_Bus_Simul_Util = 0.000686 
issued_two_Eff = 0.004618 
queue_avg = 4.539503 


dram_util_bins: 0 0 0 0 0 0 0 0 0 0
dram_eff_bins: 0 0 0 0 0 0 0 0 0 0
mrqq: max=64 avg=4.5395
Memory Partition 11: 
Cache L2_bank_022:
MSHR contents

Cache L2_bank_023:
MSHR contents

In Dram Latency Queue (total = 0): 
DRAM[11]: 16 bks, busW=2 BL=16 CL=24, tRRD=12 tCCD=4, tRCD=24 tRAS=55 tRP=24 tRC=78
n_cmd=24158030 n_nop=20572206 n_act=448223 n_pre=448207 n_ref_event=0 n_req=2667106 n_rd=2654164 n_rd_L2_A=0 n_write=0 n_wr_bk=51762 bw_util=0.448
n_activity=21432077 dram_eff=0.505
bk0: 166176a 21597603i bk1: 166182a 21616437i bk2: 165965a 21605462i bk3: 165959a 21614516i bk4: 165870a 21602951i bk5: 165859a 21625182i bk6: 165787a 21609854i bk7: 165792a 21615944i bk8: 165834a 21604822i bk9: 165831a 21615158i bk10: 165798a 21605175i bk11: 165799a 21623571i bk12: 165848a 21596008i bk13: 165822a 21614015i bk14: 165820a 21599778i bk15: 165822a 21614396i 

------------------------------------------------------------------------

Row_Buffer_Locality = 0.831946
Row_Buffer_Locality_read = 0.833948
Row_Buffer_Locality_write = 0.421341
Bank_Level_Parallism = 2.270185
Bank_Level_Parallism_Col = 1.838482
Bank_Level_Parallism_Ready = 1.241850
write_to_read_ratio_blp_rw_average = 0.030612
GrpLevelPara = 1.712245 

BW Util details:
bwutil = 0.448038 
total_CMD = 24158030 
util_bw = 10823704 
Wasted_Col = 6104991 
Wasted_Row = 2486135 
Idle = 4743200 

BW Util Bottlenecks: 
RCDc_limit = 6043226 
RCDWRc_limit = 46325 
WTRc_limit = 278481 
RTWc_limit = 326795 
CCDLc_limit = 2048077 
rwq = 0 
CCDLc_limit_alone = 2010226 
WTRc_limit_alone = 265972 
RTWc_limit_alone = 301453 

Commands details: 
total_CMD = 24158030 
n_nop = 20572206 
Read = 2654164 
Write = 0 
L2_Alloc = 0 
L2_WB = 51762 
n_act = 448223 
n_pre = 448207 
n_ref = 0 
n_req = 2667106 
total_req = 2705926 

Dual Bus Interface Util: 
issued_total_row = 896430 
issued_total_col = 2705926 
Row_Bus_Util =  0.037107 
CoL_Bus_Util = 0.112009 
Either_Row_CoL_Bus_Util = 0.148432 
Issued_on_Two_Bus_Simul_Util = 0.000684 
issued_two_Eff = 0.004610 
queue_avg = 4.550887 


dram_util_bins: 0 0 0 0 0 0 0 0 0 0
dram_eff_bins: 0 0 0 0 0 0 0 0 0 0
mrqq: max=64 avg=4.55089

========= L2 cache stats =========
L2_cache_bank[0]: Access = 1812671, Miss = 1353090, Miss_rate = 0.746, Pending_hits = 235885, Reservation_fails = 0
L2_cache_bank[1]: Access = 1812616, Miss = 1353022, Miss_rate = 0.746, Pending_hits = 236709, Reservation_fails = 0
L2_cache_bank[2]: Access = 1812269, Miss = 1353095, Miss_rate = 0.747, Pending_hits = 236653, Reservation_fails = 0
L2_cache_bank[3]: Access = 1812623, Miss = 1353121, Miss_rate = 0.746, Pending_hits = 237251, Reservation_fails = 0
L2_cache_bank[4]: Access = 1812604, Miss = 1353146, Miss_rate = 0.747, Pending_hits = 236853, Reservation_fails = 0
L2_cache_bank[5]: Access = 1812210, Miss = 1353167, Miss_rate = 0.747, Pending_hits = 237155, Reservation_fails = 0
L2_cache_bank[6]: Access = 1812629, Miss = 1353044, Miss_rate = 0.746, Pending_hits = 236677, Reservation_fails = 0
L2_cache_bank[7]: Access = 1812619, Miss = 1353110, Miss_rate = 0.746, Pending_hits = 237402, Reservation_fails = 0
L2_cache_bank[8]: Access = 1812352, Miss = 1353156, Miss_rate = 0.747, Pending_hits = 237463, Reservation_fails = 0
L2_cache_bank[9]: Access = 1812772, Miss = 1353104, Miss_rate = 0.746, Pending_hits = 237334, Reservation_fails = 0
L2_cache_bank[10]: Access = 1812906, Miss = 1353151, Miss_rate = 0.746, Pending_hits = 236857, Reservation_fails = 0
L2_cache_bank[11]: Access = 1812552, Miss = 1353139, Miss_rate = 0.747, Pending_hits = 236701, Reservation_fails = 0
L2_cache_bank[12]: Access = 1812858, Miss = 1353086, Miss_rate = 0.746, Pending_hits = 236191, Reservation_fails = 0
L2_cache_bank[13]: Access = 1812826, Miss = 1353066, Miss_rate = 0.746, Pending_hits = 236609, Reservation_fails = 0
L2_cache_bank[14]: Access = 1812492, Miss = 1353050, Miss_rate = 0.747, Pending_hits = 236384, Reservation_fails = 0
L2_cache_bank[15]: Access = 1813025, Miss = 1353144, Miss_rate = 0.746, Pending_hits = 236769, Reservation_fails = 0
L2_cache_bank[16]: Access = 1812701, Miss = 1353004, Miss_rate = 0.746, Pending_hits = 236758, Reservation_fails = 0
L2_cache_bank[17]: Access = 1812264, Miss = 1353140, Miss_rate = 0.747, Pending_hits = 237267, Reservation_fails = 0
L2_cache_bank[18]: Access = 1812749, Miss = 1353142, Miss_rate = 0.746, Pending_hits = 236123, Reservation_fails = 0
L2_cache_bank[19]: Access = 1812578, Miss = 1353200, Miss_rate = 0.747, Pending_hits = 236074, Reservation_fails = 0
L2_cache_bank[20]: Access = 1812277, Miss = 1353233, Miss_rate = 0.747, Pending_hits = 236067, Reservation_fails = 0
L2_cache_bank[21]: Access = 1812617, Miss = 1353113, Miss_rate = 0.746, Pending_hits = 235478, Reservation_fails = 0
L2_cache_bank[22]: Access = 1812577, Miss = 1353139, Miss_rate = 0.747, Pending_hits = 235768, Reservation_fails = 0
L2_cache_bank[23]: Access = 1812215, Miss = 1353107, Miss_rate = 0.747, Pending_hits = 236645, Reservation_fails = 0
L2_total_cache_accesses = 43502002
L2_total_cache_misses = 32474769
L2_total_cache_miss_rate = 0.7465
L2_total_cache_pending_hits = 5679073
L2_total_cache_reservation_fails = 0
L2_total_cache_breakdown:
	L2_cache_stats_breakdown[GLOBAL_ACC_R][HIT] = 5174489
	L2_cache_stats_breakdown[GLOBAL_ACC_R][HIT_RESERVED] = 5679073
	L2_cache_stats_breakdown[GLOBAL_ACC_R][MISS] = 7977006
	L2_cache_stats_breakdown[GLOBAL_ACC_R][RESERVATION_FAIL] = 0
	L2_cache_stats_breakdown[GLOBAL_ACC_R][SECTOR_MISS] = 23872741
	L2_cache_stats_breakdown[GLOBAL_ACC_R][MSHR_HIT] = 5679073
	L2_cache_stats_breakdown[LOCAL_ACC_R][HIT] = 0
	L2_cache_stats_breakdown[LOCAL_ACC_R][HIT_RESERVED] = 0
	L2_cache_stats_breakdown[LOCAL_ACC_R][MISS] = 0
	L2_cache_stats_breakdown[LOCAL_ACC_R][RESERVATION_FAIL] = 0
	L2_cache_stats_breakdown[LOCAL_ACC_R][SECTOR_MISS] = 0
	L2_cache_stats_breakdown[LOCAL_ACC_R][MSHR_HIT] = 0
	L2_cache_stats_breakdown[CONST_ACC_R][HIT] = 0
	L2_cache_stats_breakdown[CONST_ACC_R][HIT_RESERVED] = 0
	L2_cache_stats_breakdown[CONST_ACC_R][MISS] = 0
	L2_cache_stats_breakdown[CONST_ACC_R][RESERVATION_FAIL] = 0
	L2_cache_stats_breakdown[CONST_ACC_R][SECTOR_MISS] = 0
	L2_cache_stats_breakdown[CONST_ACC_R][MSHR_HIT] = 0
	L2_cache_stats_breakdown[TEXTURE_ACC_R][HIT] = 0
	L2_cache_stats_breakdown[TEXTURE_ACC_R][HIT_RESERVED] = 0
	L2_cache_stats_breakdown[TEXTURE_ACC_R][MISS] = 0
	L2_cache_stats_breakdown[TEXTURE_ACC_R][RESERVATION_FAIL] = 0
	L2_cache_stats_breakdown[TEXTURE_ACC_R][SECTOR_MISS] = 0
	L2_cache_stats_breakdown[TEXTURE_ACC_R][MSHR_HIT] = 0
	L2_cache_stats_breakdown[GLOBAL_ACC_W][HIT] = 173671
	L2_cache_stats_breakdown[GLOBAL_ACC_W][HIT_RESERVED] = 0
	L2_cache_stats_breakdown[GLOBAL_ACC_W][MISS] = 156272
	L2_cache_stats_breakdown[GLOBAL_ACC_W][RESERVATION_FAIL] = 0
	L2_cache_stats_breakdown[GLOBAL_ACC_W][SECTOR_MISS] = 468750
	L2_cache_stats_breakdown[GLOBAL_ACC_W][MSHR_HIT] = 0
	L2_cache_stats_breakdown[LOCAL_ACC_W][HIT] = 0
	L2_cache_stats_breakdown[LOCAL_ACC_W][HIT_RESERVED] = 0
	L2_cache_stats_breakdown[LOCAL_ACC_W][MISS] = 0
	L2_cache_stats_breakdown[LOCAL_ACC_W][RESERVATION_FAIL] = 0
	L2_cache_stats_breakdown[LOCAL_ACC_W][SECTOR_MISS] = 0
	L2_cache_stats_breakdown[LOCAL_ACC_W][MSHR_HIT] = 0
	L2_cache_stats_breakdown[L1_WRBK_ACC][HIT] = 0
	L2_cache_stats_breakdown[L1_WRBK_ACC][HIT_RESERVED] = 0
	L2_cache_stats_breakdown[L1_WRBK_ACC][MISS] = 0
	L2_cache_stats_breakdown[L1_WRBK_ACC][RESERVATION_FAIL] = 0
	L2_cache_stats_breakdown[L1_WRBK_ACC][SECTOR_MISS] = 0
	L2_cache_stats_breakdown[L1_WRBK_ACC][MSHR_HIT] = 0
	L2_cache_stats_breakdown[L2_WRBK_ACC][HIT] = 0
	L2_cache_stats_breakdown[L2_WRBK_ACC][HIT_RESERVED] = 0
	L2_cache_stats_breakdown[L2_WRBK_ACC][MISS] = 0
	L2_cache_stats_breakdown[L2_WRBK_ACC][RESERVATION_FAIL] = 0
	L2_cache_stats_breakdown[L2_WRBK_ACC][SECTOR_MISS] = 0
	L2_cache_stats_breakdown[L2_WRBK_ACC][MSHR_HIT] = 0
	L2_cache_stats_breakdown[INST_ACC_R][HIT] = 0
	L2_cache_stats_breakdown[INST_ACC_R][HIT_RESERVED] = 0
	L2_cache_stats_breakdown[INST_ACC_R][MISS] = 0
	L2_cache_stats_breakdown[INST_ACC_R][RESERVATION_FAIL] = 0
	L2_cache_stats_breakdown[INST_ACC_R][SECTOR_MISS] = 0
	L2_cache_stats_breakdown[INST_ACC_R][MSHR_HIT] = 0
	L2_cache_stats_breakdown[L1_WR_ALLOC_R][HIT] = 0
	L2_cache_stats_breakdown[L1_WR_ALLOC_R][HIT_RESERVED] = 0
	L2_cache_stats_breakdown[L1_WR_ALLOC_R][MISS] = 0
	L2_cache_stats_breakdown[L1_WR_ALLOC_R][RESERVATION_FAIL] = 0
	L2_cache_stats_breakdown[L1_WR_ALLOC_R][SECTOR_MISS] = 0
	L2_cache_stats_breakdown[L1_WR_ALLOC_R][MSHR_HIT] = 0
	L2_cache_stats_breakdown[L2_WR_ALLOC_R][HIT] = 0
	L2_cache_stats_breakdown[L2_WR_ALLOC_R][HIT_RESERVED] = 0
	L2_cache_stats_breakdown[L2_WR_ALLOC_R][MISS] = 0
	L2_cache_stats_breakdown[L2_WR_ALLOC_R][RESERVATION_FAIL] = 0
	L2_cache_stats_breakdown[L2_WR_ALLOC_R][SECTOR_MISS] = 0
	L2_cache_stats_breakdown[L2_WR_ALLOC_R][MSHR_HIT] = 0
	L2_cache_stats_breakdown[GLOBAL_ACC_R][TOTAL_ACCESS] = 42703309
	L2_cache_stats_breakdown[GLOBAL_ACC_W][TOTAL_ACCESS] = 798693
L2_total_cache_reservation_fail_breakdown:
L2_cache_data_port_util = 0.024
L2_cache_fill_port_util = 0.141

icnt_total_pkts_mem_to_simt=43502002
icnt_total_pkts_simt_to_mem=43502002
LD_mem_lat_dist  0 0 0 0 0 0 0 0 0 0 0 0 0 0 0 0 0 0 0 0 0 0 0 0 0 0 0
ST_mem_lat_dist  0 0 0 0 0 0 0 0 0 0 0 0 0 0 0 0 0 0 0 0 0 0 0 0 0 0 0
----------------------------Interconnect-DETAILS--------------------------------
Req_Network_injected_packets_num = 43502002
Req_Network_cycles = 9420294
Req_Network_injected_packets_per_cycle =       4.6179 
Req_Network_conflicts_per_cycle =       0.7758
Req_Network_conflicts_per_cycle_util =       0.7886
Req_Bank_Level_Parallism =       4.6946
Req_Network_in_buffer_full_per_cycle =       0.0000
Req_Network_in_buffer_avg_util =       0.2838
Req_Network_out_buffer_full_per_cycle =       0.0000
Req_Network_out_buffer_avg_util =       0.1924

Reply_Network_injected_packets_num = 43502002
Reply_Network_cycles = 9420294
Reply_Network_injected_packets_per_cycle =        4.6179
Reply_Network_conflicts_per_cycle =        2.3916
Reply_Network_conflicts_per_cycle_util =       2.4284
Reply_Bank_Level_Parallism =       4.6890
Reply_Network_in_buffer_full_per_cycle =       0.0000
Reply_Network_in_buffer_avg_util =       0.2380
Reply_Network_out_buffer_full_per_cycle =       0.0000
Reply_Network_out_buffer_avg_util =       0.1539
----------------------------END-of-Interconnect-DETAILS-------------------------


gpgpu_simulation_time = 1 days, 14 hrs, 36 min, 40 sec (139000 sec)
gpgpu_simulation_rate = 85321 (inst/sec)
gpgpu_simulation_rate = 67 (cycle/sec)
gpgpu_silicon_slowdown = 20373134x
GPGPU-Sim: *** exit detected ***
