

        *** GPGPU-Sim Simulator Version 4.2.0  [build gpgpu-sim_git-commit-5e9d31b8132651796656877ecb58fde27177ba7a_modified_315.0] ***


GPGPU-Sim PTX: simulation mode 0 (can change with PTX_SIM_MODE_FUNC environment variable:
               1=functional simulation only, 0=detailed performance simulator)
GPGPU-Sim PTX: overriding embedded ptx with ptx file (PTX_SIM_USE_PTX_FILE is set)
GPGPU-Sim: Configuration options:

-save_embedded_ptx                      0 # saves ptx files embedded in binary as <n>.ptx
-keep                                   0 # keep intermediate files created by GPGPU-Sim when interfacing with external programs
-gpgpu_ptx_save_converted_ptxplus                    0 # Saved converted ptxplus to a file
-gpgpu_occupancy_sm_number                   75 # The SM number to pass to ptxas when getting register usage for computing GPU occupancy. This parameter is required in the config.
-ptx_opcode_latency_int           4,4,4,4,21 # Opcode latencies for integers <ADD,MAX,MUL,MAD,DIV,SHFL>Default 1,1,19,25,145,32
-ptx_opcode_latency_fp           4,4,4,4,39 # Opcode latencies for single precision floating points <ADD,MAX,MUL,MAD,DIV>Default 1,1,1,1,30
-ptx_opcode_latency_dp      64,64,64,64,330 # Opcode latencies for double precision floating points <ADD,MAX,MUL,MAD,DIV>Default 8,8,8,8,335
-ptx_opcode_latency_sfu                   21 # Opcode latencies for SFU instructionsDefault 8
-ptx_opcode_latency_tesnor                   64 # Opcode latencies for Tensor instructionsDefault 64
-ptx_opcode_initiation_int            2,2,2,2,2 # Opcode initiation intervals for integers <ADD,MAX,MUL,MAD,DIV,SHFL>Default 1,1,4,4,32,4
-ptx_opcode_initiation_fp            2,2,2,2,4 # Opcode initiation intervals for single precision floating points <ADD,MAX,MUL,MAD,DIV>Default 1,1,1,1,5
-ptx_opcode_initiation_dp      64,64,64,64,130 # Opcode initiation intervals for double precision floating points <ADD,MAX,MUL,MAD,DIV>Default 8,8,8,8,130
-ptx_opcode_initiation_sfu                    8 # Opcode initiation intervals for sfu instructionsDefault 8
-ptx_opcode_initiation_tensor                   64 # Opcode initiation intervals for tensor instructionsDefault 64
-cdp_latency         7200,8000,100,12000,1600 # CDP API latency <cudaStreamCreateWithFlags, cudaGetParameterBufferV2_init_perWarp, cudaGetParameterBufferV2_perKernel, cudaLaunchDeviceV2_init_perWarp, cudaLaunchDevicV2_perKernel>Default 7200,8000,100,12000,1600
-network_mode                           2 # Interconnection network mode
-inter_config_file                   mesh # Interconnection network config file
-icnt_in_buffer_limit                  512 # in_buffer_limit
-icnt_out_buffer_limit                  512 # out_buffer_limit
-icnt_subnets                           2 # subnets
-icnt_arbiter_algo                      1 # arbiter_algo
-icnt_verbose                           0 # inct_verbose
-icnt_grant_cycles                      1 # grant_cycles
-gpgpu_ptx_use_cuobjdump                    1 # Use cuobjdump to extract ptx and sass from binaries
-gpgpu_experimental_lib_support                    0 # Try to extract code from cuda libraries [Broken because of unknown cudaGetExportTable]
-checkpoint_option                      0 #  checkpointing flag (0 = no checkpoint)
-checkpoint_kernel                      1 #  checkpointing during execution of which kernel (1- 1st kernel)
-checkpoint_CTA                         0 #  checkpointing after # of CTA (< less than total CTA)
-resume_option                          0 #  resume flag (0 = no resume)
-resume_kernel                          0 #  Resume from which kernel (1= 1st kernel)
-resume_CTA                             0 #  resume from which CTA 
-checkpoint_CTA_t                       0 #  resume from which CTA 
-checkpoint_insn_Y                      0 #  resume from which CTA 
-gpgpu_ptx_convert_to_ptxplus                    0 # Convert SASS (native ISA) to ptxplus and run ptxplus
-gpgpu_ptx_force_max_capability                   75 # Force maximum compute capability
-gpgpu_ptx_inst_debug_to_file                    0 # Dump executed instructions' debug information to file
-gpgpu_ptx_inst_debug_file       inst_debug.txt # Executed instructions' debug output file
-gpgpu_ptx_inst_debug_thread_uid                    1 # Thread UID for executed instructions' debug output
-gpgpu_simd_model                       1 # 1 = post-dominator
-gpgpu_shader_core_pipeline              1024:32 # shader core pipeline config, i.e., {<nthread>:<warpsize>}
-gpgpu_tex_cache:l1  N:4:128:256,L:R:m:N:L,T:512:8,128:2 # per-shader L1 texture cache  (READ-ONLY) config  {<nsets>:<bsize>:<assoc>,<rep>:<wr>:<alloc>:<wr_alloc>,<mshr>:<N>:<merge>,<mq>:<rf>}
-gpgpu_const_cache:l1 N:128:64:8,L:R:f:N:L,S:2:64,4 # per-shader L1 constant memory cache  (READ-ONLY) config  {<nsets>:<bsize>:<assoc>,<rep>:<wr>:<alloc>:<wr_alloc>,<mshr>:<N>:<merge>,<mq>} 
-gpgpu_cache:il1     N:64:128:16,L:R:f:N:L,S:2:48,4 # shader L1 instruction cache config  {<nsets>:<bsize>:<assoc>,<rep>:<wr>:<alloc>:<wr_alloc>,<mshr>:<N>:<merge>,<mq>} 
-gpgpu_cache:dl1     S:4:128:64,L:T:m:L:L,A:256:32,16:0,32 # per-shader L1 data cache config  {<nsets>:<bsize>:<assoc>,<rep>:<wr>:<alloc>:<wr_alloc>,<mshr>:<N>:<merge>,<mq> | none}
-gpgpu_l1_cache_write_ratio                   25 # L1D write ratio
-gpgpu_l1_banks                         4 # The number of L1 cache banks
-gpgpu_l1_banks_byte_interleaving                   32 # l1 banks byte interleaving granularity
-gpgpu_l1_banks_hashing_function                    0 # l1 banks hashing function
-gpgpu_l1_latency                      32 # L1 Hit Latency
-gpgpu_smem_latency                    30 # smem Latency
-gpgpu_cache:dl1PrefL1                 none # per-shader L1 data cache config  {<nsets>:<bsize>:<assoc>,<rep>:<wr>:<alloc>:<wr_alloc>,<mshr>:<N>:<merge>,<mq> | none}
-gpgpu_cache:dl1PrefShared                 none # per-shader L1 data cache config  {<nsets>:<bsize>:<assoc>,<rep>:<wr>:<alloc>:<wr_alloc>,<mshr>:<N>:<merge>,<mq> | none}
-gpgpu_gmem_skip_L1D                    0 # global memory access skip L1D cache (implements -Xptxas -dlcm=cg, default=no skip)
-gpgpu_perfect_mem                      0 # enable perfect memory mode (no cache miss)
-n_regfile_gating_group                    4 # group of lanes that should be read/written together)
-gpgpu_clock_gated_reg_file                    0 # enable clock gated reg file for power calculations
-gpgpu_clock_gated_lanes                    0 # enable clock gated lanes for power calculations
-gpgpu_shader_registers                65536 # Number of registers per shader core. Limits number of concurrent CTAs. (default 8192)
-gpgpu_registers_per_block                65536 # Maximum number of registers per CTA. (default 8192)
-gpgpu_ignore_resources_limitation                    0 # gpgpu_ignore_resources_limitation (default 0)
-gpgpu_shader_cta                      16 # Maximum number of concurrent CTAs in shader (default 32)
-gpgpu_num_cta_barriers                   16 # Maximum number of named barriers per CTA (default 16)
-gpgpu_n_clusters                      30 # number of processing clusters
-gpgpu_n_cores_per_cluster                    1 # number of simd cores per cluster
-gpgpu_n_cluster_ejection_buffer_size                   32 # number of packets in ejection buffer
-gpgpu_n_ldst_response_buffer_size                    2 # number of response packets in ld/st unit ejection buffer
-gpgpu_shmem_per_block                49152 # Size of shared memory per thread block or CTA (default 48kB)
-gpgpu_shmem_size                   65536 # Size of shared memory per shader core (default 16kB)
-gpgpu_shmem_option                 32,64 # Option list of shared memory sizes
-gpgpu_unified_l1d_size                   96 # Size of unified data cache(L1D + shared memory) in KB
-gpgpu_adaptive_cache_config                    1 # adaptive_cache_config
-gpgpu_shmem_sizeDefault                65536 # Size of shared memory per shader core (default 16kB)
-gpgpu_shmem_size_PrefL1                16384 # Size of shared memory per shader core (default 16kB)
-gpgpu_shmem_size_PrefShared                16384 # Size of shared memory per shader core (default 16kB)
-gpgpu_shmem_num_banks                   32 # Number of banks in the shared memory in each shader core (default 16)
-gpgpu_shmem_limited_broadcast                    0 # Limit shared memory to do one broadcast per cycle (default on)
-gpgpu_shmem_warp_parts                    1 # Number of portions a warp is divided into for shared memory bank conflict check 
-gpgpu_mem_unit_ports                    1 # The number of memory transactions allowed per core cycle
-gpgpu_shmem_warp_parts                    1 # Number of portions a warp is divided into for shared memory bank conflict check 
-gpgpu_warpdistro_shader                   -1 # Specify which shader core to collect the warp size distribution from
-gpgpu_warp_issue_shader                    0 # Specify which shader core to collect the warp issue distribution from
-gpgpu_local_mem_map                    1 # Mapping from local memory space address to simulated GPU physical address space (default = enabled)
-gpgpu_num_reg_banks                    8 # Number of register banks (default = 8)
-gpgpu_reg_bank_use_warp_id                    0 # Use warp ID in mapping registers to banks (default = off)
-gpgpu_sub_core_model                    1 # Sub Core Volta/Pascal model (default = off)
-gpgpu_enable_specialized_operand_collector                    0 # enable_specialized_operand_collector
-gpgpu_operand_collector_num_units_sp                    4 # number of collector units (default = 4)
-gpgpu_operand_collector_num_units_dp                    0 # number of collector units (default = 0)
-gpgpu_operand_collector_num_units_sfu                    4 # number of collector units (default = 4)
-gpgpu_operand_collector_num_units_int                    0 # number of collector units (default = 0)
-gpgpu_operand_collector_num_units_tensor_core                    4 # number of collector units (default = 4)
-gpgpu_operand_collector_num_units_mem                    2 # number of collector units (default = 2)
-gpgpu_operand_collector_num_units_gen                    8 # number of collector units (default = 0)
-gpgpu_operand_collector_num_in_ports_sp                    1 # number of collector unit in ports (default = 1)
-gpgpu_operand_collector_num_in_ports_dp                    0 # number of collector unit in ports (default = 0)
-gpgpu_operand_collector_num_in_ports_sfu                    1 # number of collector unit in ports (default = 1)
-gpgpu_operand_collector_num_in_ports_int                    0 # number of collector unit in ports (default = 0)
-gpgpu_operand_collector_num_in_ports_tensor_core                    1 # number of collector unit in ports (default = 1)
-gpgpu_operand_collector_num_in_ports_mem                    1 # number of collector unit in ports (default = 1)
-gpgpu_operand_collector_num_in_ports_gen                    8 # number of collector unit in ports (default = 0)
-gpgpu_operand_collector_num_out_ports_sp                    1 # number of collector unit in ports (default = 1)
-gpgpu_operand_collector_num_out_ports_dp                    0 # number of collector unit in ports (default = 0)
-gpgpu_operand_collector_num_out_ports_sfu                    1 # number of collector unit in ports (default = 1)
-gpgpu_operand_collector_num_out_ports_int                    0 # number of collector unit in ports (default = 0)
-gpgpu_operand_collector_num_out_ports_tensor_core                    1 # number of collector unit in ports (default = 1)
-gpgpu_operand_collector_num_out_ports_mem                    1 # number of collector unit in ports (default = 1)
-gpgpu_operand_collector_num_out_ports_gen                    8 # number of collector unit in ports (default = 0)
-gpgpu_coalesce_arch                   75 # Coalescing arch (GT200 = 13, Fermi = 20)
-gpgpu_num_sched_per_core                    4 # Number of warp schedulers per core
-gpgpu_max_insn_issue_per_warp                    1 # Max number of instructions that can be issued per warp in one cycle by scheduler (either 1 or 2)
-gpgpu_dual_issue_diff_exec_units                    1 # should dual issue use two different execution unit resources (Default = 1)
-gpgpu_simt_core_sim_order                    1 # Select the simulation order of cores in a cluster (0=Fix, 1=Round-Robin)
-gpgpu_pipeline_widths 4,4,4,4,4,4,4,4,4,4,8,4,4 # Pipeline widths ID_OC_SP,ID_OC_DP,ID_OC_INT,ID_OC_SFU,ID_OC_MEM,OC_EX_SP,OC_EX_DP,OC_EX_INT,OC_EX_SFU,OC_EX_MEM,EX_WB,ID_OC_TENSOR_CORE,OC_EX_TENSOR_CORE
-gpgpu_tensor_core_avail                    1 # Tensor Core Available (default=0)
-gpgpu_num_sp_units                     4 # Number of SP units (default=1)
-gpgpu_num_dp_units                     4 # Number of DP units (default=0)
-gpgpu_num_int_units                    4 # Number of INT units (default=0)
-gpgpu_num_sfu_units                    4 # Number of SF units (default=1)
-gpgpu_num_tensor_core_units                    4 # Number of tensor_core units (default=1)
-gpgpu_num_mem_units                    1 # Number if ldst units (default=1) WARNING: not hooked up to anything
-gpgpu_scheduler                      lrr # Scheduler configuration: < lrr | gto | two_level_active > If two_level_active:<num_active_warps>:<inner_prioritization>:<outer_prioritization>For complete list of prioritization values see shader.h enum scheduler_prioritization_typeDefault: gto
-gpgpu_concurrent_kernel_sm                    0 # Support concurrent kernels on a SM (default = disabled)
-gpgpu_perfect_inst_const_cache                    1 # perfect inst and const cache mode, so all inst and const hits in the cache(default = disabled)
-gpgpu_inst_fetch_throughput                    4 # the number of fetched intruction per warp each cycle
-gpgpu_reg_file_port_throughput                    2 # the number ports of the register file
-specialized_unit_1         0,4,4,4,4,BRA # specialized unit config {<enabled>,<num_units>:<latency>:<initiation>,<ID_OC_SPEC>:<OC_EX_SPEC>,<NAME>}
-specialized_unit_2         0,4,4,4,4,BRA # specialized unit config {<enabled>,<num_units>:<latency>:<initiation>,<ID_OC_SPEC>:<OC_EX_SPEC>,<NAME>}
-specialized_unit_3         0,4,4,4,4,BRA # specialized unit config {<enabled>,<num_units>:<latency>:<initiation>,<ID_OC_SPEC>:<OC_EX_SPEC>,<NAME>}
-specialized_unit_4         0,4,4,4,4,BRA # specialized unit config {<enabled>,<num_units>:<latency>:<initiation>,<ID_OC_SPEC>:<OC_EX_SPEC>,<NAME>}
-specialized_unit_5         0,4,4,4,4,BRA # specialized unit config {<enabled>,<num_units>:<latency>:<initiation>,<ID_OC_SPEC>:<OC_EX_SPEC>,<NAME>}
-specialized_unit_6         0,4,4,4,4,BRA # specialized unit config {<enabled>,<num_units>:<latency>:<initiation>,<ID_OC_SPEC>:<OC_EX_SPEC>,<NAME>}
-specialized_unit_7         0,4,4,4,4,BRA # specialized unit config {<enabled>,<num_units>:<latency>:<initiation>,<ID_OC_SPEC>:<OC_EX_SPEC>,<NAME>}
-specialized_unit_8         0,4,4,4,4,BRA # specialized unit config {<enabled>,<num_units>:<latency>:<initiation>,<ID_OC_SPEC>:<OC_EX_SPEC>,<NAME>}
-gpgpu_perf_sim_memcpy                    1 # Fill the L2 cache on memcpy
-gpgpu_simple_dram_model                    0 # simple_dram_model with fixed latency and BW
-gpgpu_dram_scheduler                    1 # 0 = fifo, 1 = FR-FCFS (defaul)
-gpgpu_dram_partition_queues          64:64:64:64 # i2$:$2d:d2$:$2i
-l2_ideal                               0 # Use a ideal L2 cache that always hit
-gpgpu_cache:dl2     S:64:128:16,L:B:m:L:P,A:192:4,32:0,32 # unified banked L2 data cache config  {<nsets>:<bsize>:<assoc>,<rep>:<wr>:<alloc>:<wr_alloc>,<mshr>:<N>:<merge>,<mq>}
-gpgpu_cache:dl2_texture_only                    0 # L2 cache used for texture only
-gpgpu_n_mem                           12 # number of memory modules (e.g. memory controllers) in gpu
-gpgpu_n_sub_partition_per_mchannel                    2 # number of memory subpartition in each memory module
-gpgpu_n_mem_per_ctrlr                    1 # number of memory chips per memory controller
-gpgpu_memlatency_stat                   14 # track and display latency statistics 0x2 enables MC, 0x4 enables queue logs
-gpgpu_frfcfs_dram_sched_queue_size                   64 # 0 = unlimited (default); # entries per chip
-gpgpu_dram_return_queue_size                  192 # 0 = unlimited (default); # entries per chip
-gpgpu_dram_buswidth                    2 # default = 4 bytes (8 bytes per cycle at DDR)
-gpgpu_dram_burst_length                   16 # Burst length of each DRAM request (default = 4 data bus cycle)
-dram_data_command_freq_ratio                    4 # Frequency ratio between DRAM data bus and command bus (default = 2 times, i.e. DDR)
-gpgpu_dram_timing_opt nbk=16:CCD=4:RRD=12:RCD=24:RAS=55:RP=24:RC=78:CL=24:WL=8:CDLR=10:WR=24:nbkgrp=4:CCDL=6:RTPL=4 # DRAM timing parameters = {nbk:tCCD:tRRD:tRCD:tRAS:tRP:tRC:CL:WL:tCDLR:tWR:nbkgrp:tCCDL:tRTPL}
-gpgpu_l2_rop_latency                  194 # ROP queue latency (default 85)
-dram_latency                          96 # DRAM latency (default 30)
-dram_dual_bus_interface                    0 # dual_bus_interface (default = 0) 
-dram_bnk_indexing_policy                    0 # dram_bnk_indexing_policy (0 = normal indexing, 1 = Xoring with the higher bits) (Default = 0)
-dram_bnkgrp_indexing_policy                    1 # dram_bnkgrp_indexing_policy (0 = take higher bits, 1 = take lower bits) (Default = 0)
-dram_seperate_write_queue_enable                    0 # Seperate_Write_Queue_Enable
-dram_write_queue_size             32:28:16 # Write_Queue_Size
-dram_elimnate_rw_turnaround                    0 # elimnate_rw_turnaround i.e set tWTR and tRTW = 0
-icnt_flit_size                        40 # icnt_flit_size
-icnt_flit_size                        40 # icnt_flit_size
-mem_profiler                           0 # memory access runtime profiling (0 = not enabled)
-gpgpu_mem_addr_mapping dramid@8;00000000.00000000.00000000.00000000.0000RRRR.RRRRRRRR.RBBBCCCC.BCCSSSSS # mapping memory address to dram model {dramid@<start bit>;<memory address map>}
-gpgpu_mem_addr_test                    0 # run sweep test to check address mapping for aliased address
-gpgpu_mem_address_mask                    1 # 0 = old addressing mask, 1 = new addressing mask, 2 = new add. mask + flipped bank sel and chip sel bits
-gpgpu_memory_partition_indexing                    0 # 0 = no indexing, 1 = bitwise xoring, 2 = IPoly, 3 = custom indexing
-accelwattch_xml_file accelwattch_sass_sim.xml # AccelWattch XML file
-power_simulation_enabled                    1 # Turn on power simulator (1=On, 0=Off)
-power_per_cycle_dump                    1 # Dump detailed power output each cycle
-hw_perf_file_name            hw_perf.csv # Hardware Performance Statistics file
-hw_perf_bench_name    hw_perf_bench_name # Kernel Name in Hardware Performance Statistics file
-power_simulation_mode                    0 # Switch performance counter input for power simulation (0=Sim, 1=HW, 2=HW-Sim Hybrid)
-dvfs_enabled                           1 # Turn on DVFS for power model
-aggregate_power_stats                    0 # Accumulate power across all kernels
-accelwattch_hybrid_perfsim_L1_RH                    0 # Get L1 Read Hits for Accelwattch-Hybrid from Accel-Sim
-accelwattch_hybrid_perfsim_L1_RM                    0 # Get L1 Read Misses for Accelwattch-Hybrid from Accel-Sim
-accelwattch_hybrid_perfsim_L1_WH                    0 # Get L1 Write Hits for Accelwattch-Hybrid from Accel-Sim
-accelwattch_hybrid_perfsim_L1_WM                    0 # Get L1 Write Misses for Accelwattch-Hybrid from Accel-Sim
-accelwattch_hybrid_perfsim_L2_RH                    0 # Get L2 Read Hits for Accelwattch-Hybrid from Accel-Sim
-accelwattch_hybrid_perfsim_L2_RM                    0 # Get L2 Read Misses for Accelwattch-Hybrid from Accel-Sim
-accelwattch_hybrid_perfsim_L2_WH                    0 # Get L2 Write Hits for Accelwattch-Hybrid from Accel-Sim
-accelwattch_hybrid_perfsim_L2_WM                    0 # Get L2 Write Misses for Accelwattch-Hybrid from Accel-Sim
-accelwattch_hybrid_perfsim_CC_ACC                    0 # Get Constant Cache Acesses for Accelwattch-Hybrid from Accel-Sim
-accelwattch_hybrid_perfsim_SHARED_ACC                    0 # Get Shared Memory Acesses for Accelwattch-Hybrid from Accel-Sim
-accelwattch_hybrid_perfsim_DRAM_RD                    0 # Get DRAM Reads for Accelwattch-Hybrid from Accel-Sim
-accelwattch_hybrid_perfsim_DRAM_WR                    0 # Get DRAM Writes for Accelwattch-Hybrid from Accel-Sim
-accelwattch_hybrid_perfsim_NOC                    0 # Get Interconnect Acesses for Accelwattch-Hybrid from Accel-Sim
-accelwattch_hybrid_perfsim_PIPE_DUTY                    0 # Get Pipeline Duty Cycle Acesses for Accelwattch-Hybrid from Accel-Sim
-accelwattch_hybrid_perfsim_NUM_SM_IDLE                    0 # Get Number of Idle SMs for Accelwattch-Hybrid from Accel-Sim
-accelwattch_hybrid_perfsim_CYCLES                    0 # Get Executed Cycles for Accelwattch-Hybrid from Accel-Sim
-accelwattch_hybrid_perfsim_VOLTAGE                    0 # Get Chip Voltage for Accelwattch-Hybrid from Accel-Sim
-power_trace_enabled                    0 # produce a file for the power trace (1=On, 0=Off)
-power_trace_zlevel                     0 # Compression level of the power trace output log (0=no comp, 9=highest)
-steady_power_levels_enabled                    0 # produce a file for the steady power levels (1=On, 0=Off)
-steady_state_definition                  8:4 # allowed deviation:number of samples
-gpgpu_max_cycle                        0 # terminates gpu simulation early (0 = no limit)
-gpgpu_max_insn                         0 # terminates gpu simulation early (0 = no limit)
-gpgpu_max_cta                          0 # terminates gpu simulation early (0 = no limit)
-gpgpu_max_completed_cta                    0 # terminates gpu simulation early (0 = no limit)
-gpgpu_runtime_stat                  1000 # display runtime statistics such as dram utilization {<freq>:<flag>}
-liveness_message_freq                    1 # Minimum number of seconds between simulation liveness messages (0 = always print)
-gpgpu_compute_capability_major                    7 # Major compute capability version number
-gpgpu_compute_capability_minor                    5 # Minor compute capability version number
-gpgpu_flush_l1_cache                    1 # Flush L1 cache at the end of each kernel call
-gpgpu_flush_l2_cache                    0 # Flush L2 cache at the end of each kernel call
-gpgpu_deadlock_detect                    1 # Stop the simulation at deadlock (1=on (default), 0=off)
-gpgpu_ptx_instruction_classification                    0 # if enabled will classify ptx instruction types per kernel (Max 255 kernels now)
-gpgpu_ptx_sim_mode                     0 # Select between Performance (default) or Functional simulation (1)
-gpgpu_clock_domains 1365:1365:1365:3500.5 # Clock Domain Frequencies in MhZ {<Core Clock>:<ICNT Clock>:<L2 Clock>:<DRAM Clock>}
-gpgpu_max_concurrent_kernel                  128 # maximum kernels that can run concurrently on GPU, set this value according to max resident grids for your compute capability
-gpgpu_cflog_interval                    0 # Interval between each snapshot in control flow logger
-visualizer_enabled                     0 # Turn on visualizer output (1=On, 0=Off)
-visualizer_outputfile                 NULL # Specifies the output log file for visualizer
-visualizer_zlevel                      6 # Compression level of the visualizer output log (0=no comp, 9=highest)
-gpgpu_stack_size_limit                 1024 # GPU thread stack size
-gpgpu_heap_size_limit              8388608 # GPU malloc heap size 
-gpgpu_runtime_sync_depth_limit                    2 # GPU device runtime synchronize depth
-gpgpu_runtime_pending_launch_count_limit                 2048 # GPU device runtime pending launch count
-trace_enabled                          0 # Turn on traces
-trace_components                    none # comma seperated list of traces to enable. Complete list found in trace_streams.tup. Default none
-trace_sampling_core                    0 # The core which is printed using CORE_DPRINTF. Default 0
-trace_sampling_memory_partition                   -1 # The memory partition which is printed using MEMPART_DPRINTF. Default -1 (i.e. all)
-enable_ptx_file_line_stats                    1 # Turn on PTX source line statistic profiling. (1 = On)
-ptx_line_stats_filename gpgpu_inst_stats.txt # Output file for PTX source line statistics.
-gpgpu_kernel_launch_latency                 5000 # Kernel launch latency in cycles. Default: 0
-gpgpu_cdp_enabled                      0 # Turn on CDP
-gpgpu_TB_launch_latency                    0 # thread block launch latency in cycles. Default: 0
-mem_runtime_stat                     100 # memory access runtime profiling samplingf1ad30b852078960a9dbd86436544186  /home/pars/Documents/sim_4/mst_topo
Extracting PTX file and ptxas options    1: mst_topo.1.sm_75.ptx -arch=sm_75
 freq
-L1D_metrics                            0 # memory access runtime profiling for L1 data cache
-IPC_per_prof_interval                    0 # IPC per profiling interval
-instruction_monitor                    0 # Instruction monitor
-noncoal_metrics                        0 # memory access runtime profiling for shared memory
-L2_metrics                             0 # memory access runtime profiling for L2 cache
-DRAM_metrics                           0 # memory access runtime profiling for DRAM
-Shmem_metrics                          0 # memory access runtime profiling for noncoalesced accesses
-store_enable                           0 # Enable stores for memory profiling
-accumulate_stats                       0 # Accumulate stats for the memory profiling
-dump_enable                            0 # Process dump enable flag - (def = 0)
-flush_l1d                              0 # Enable flushings for L1D caches - (default = 0)
-flush_l2                               0 # Enable flushings for L2 caches - (default = 0)
-flush_dram                             0 # Enable flushings for DRAM - (default = 0)
-flush_noncoalesceds                    0 # Enable flushings for non coalesced accesses - (default = 0)
-flush_shmems                           0 # Enable flushings for shared memory accesses - (default = 0)
-error_percentage          21474836480001 # Error percentage for the flushes - (default = 1)
-dump_sampling_cycle       21474836485000 # Dump sampling frequency - (default = 5000)
-flush_acc_type                         2 # Flush access types
-monitor_sampling_cycle                 5000 # Monitoring sampling cycle - (default = 5000)
DRAM Timing Options:
nbk                                    16 # number of banks
CCD                                     4 # column to column delay
RRD                                    12 # minimal delay between activation of rows in different banks
RCD                                    24 # row to column delay
RAS                                    55 # time needed to activate row
RP                                     24 # time needed to precharge (deactivate) row
RC                                     78 # row cycle time
CDLR                                   10 # switching from write to read (changes tWTR)
WR                                     24 # last data-in to row precharge
CL                                     24 # CAS latency
WL                                      8 # Write latency
nbkgrp                                  4 # number of bank groups
CCDL                                    6 # column to column delay between accesses to different bank groups
RTPL                                    4 # read to precharge delay between accesses to different bank groups
Total number of memory sub partition = 24
addr_dec_mask[CHIP]  = 0000000000000000 	high:64 low:0
addr_dec_mask[BK]    = 0000000000007080 	high:15 low:7
addr_dec_mask[ROW]   = 000000000fff8000 	high:28 low:15
addr_dec_mask[COL]   = 0000000000000f7f 	high:12 low:0
addr_dec_mask[BURST] = 000000000000001f 	high:5 low:0
sub_partition_id_mask = 0000000000000080
GPGPU-Sim uArch: clock freqs: 1365000000.000000:1365000000.000000:1365000000.000000:3500500000.000000
GPGPU-Sim uArch: clock periods: 0.00000000073260073260:0.00000000073260073260:0.00000000073260073260:0.00000000028567347522
*** Initializing Memory Statistics ***
GPGPU-Sim uArch: performance model initialization complete.
self exe links to: /home/pars/Documents/sim_4/mst_topo
self exe links to: /home/pars/Documents/sim_4/mst_topo
11.0
GPGPU-Sim PTX: __cudaRegisterFatBinary, fat_cubin_handle = 1, filename=default
self exe links to: /home/pars/Documents/sim_4/mst_topo
Running md5sum using "md5sum /home/pars/Documents/sim_4/mst_topo "
self exe links to: /home/pars/Documents/sim_4/mst_topo
Extracting specific PTX file named mst_topo.1.sm_75.ptx 
GPGPU-Sim PTX: __cudaRegisterFunction _ZN3cub11EmptyKernelIvEEvv : hostFun 0x0x55c9f16cc67c, fat_cubin_handle = 1
GPGPU-Sim PTX: Parsing mst_topo.1.sm_75.ptx
GPGPU-Sim PTX: allocating stack frame region for .param "func_retval0" from 0x0 to 0x4
GPGPU-Sim PTX: allocating stack frame region for .param "vprintf_param_0" from 0x4 to 0xc
GPGPU-Sim PTX: allocating stack frame region for .param "vprintf_param_1" from 0xc to 0x14
GPGPU-Sim PTX: allocating global region for "g_mutex" from 0x100 to 0x104 (global memory space)
GPGPU-Sim PTX: allocating global region for "_ZN37_INTERNAL_8cb3f789_7_main_cu_07b28d9b6thrust6system6detail10sequential3seqE" from 0x104 to 0x105 (global memory space)
GPGPU-Sim PTX: allocating global region for "_ZN37_INTERNAL_8cb3f789_7_main_cu_07b28d9b6thrust12placeholders2_1E" from 0x105 to 0x106 (global memory space)
GPGPU-Sim PTX: allocating global region for "_ZN37_INTERNAL_8cb3f789_7_main_cu_07b28d9b6thrust12placeholders2_2E" from 0x106 to 0x107 (global memory space)
GPGPU-Sim PTX: allocating global region for "_ZN37_INTERNAL_8cb3f789_7_main_cu_07b28d9b6thrust12placeholders2_3E" from 0x107 to 0x108 (global memory space)
GPGPU-Sim PTX: allocating global region for "_ZN37_INTERNAL_8cb3f789_7_main_cu_07b28d9b6thrust12placeholders2_4E" from 0x108 to 0x109 (global memory space)
GPGPU-Sim PTX: allocating global region for "_ZN37_INTERNAL_8cb3f789_7_main_cu_07b28d9b6thrust12placeholders2_5E" from 0x109 to 0x10a (global memory space)
GPGPU-Sim PTX: allocating global region for "_ZN37_INTERNAL_8cb3f789_7_main_cu_07b28d9b6thrust12placeholders2_6E" from 0x10a to 0x10b (global memory space)
GPGPU-Sim PTX: allocating global region for "_ZN37_INTERNAL_8cb3f789_7_main_cu_07b28d9b6thrust12placeholders2_7E" from 0x10b to 0x10c (global memory space)
GPGPU-Sim PTX: allocating global region for "_ZN37_INTERNAL_8cb3f789_7_main_cu_07b28d9b6thrust12placeholders2_8E" from 0x10c to 0x10d (global memory space)
GPGPU-Sim PTX: allocating global region for "_ZN37_INTERNAL_8cb3f789_7_main_cu_07b28d9b6thrust12placeholders2_9E" from 0x10d to 0x10e (global memory space)
GPGPU-Sim PTX: allocating global region for "_ZN37_INTERNAL_8cb3f789_7_main_cu_07b28d9b6thrust12placeholders3_10E" from 0x10e to 0x10f (global memory space)
GPGPU-Sim PTX: allocating global region for "$str" from 0x180 to 0x195 (global memory space)
GPGPU-Sim PTX: allocating global region for "$str$1" from 0x200 to 0x20c (global memory space)
GPGPU-Sim PTX: allocating stack frame region for .local "__local_depot0" from 0x0 to 0x8
GPGPU-Sim PTX: allocating stack frame region for .param "param0" from 0x8 to 0x10
GPGPU-Sim PTX: allocating stack frame region for .param "param1" from 0x10 to 0x18
GPGPU-Sim PTX: allocating stack frame region for .param "retval0" from 0x18 to 0x1c
GPGPU-Sim PTX: allocating stack frame region for .param "param0" from 0x1c to 0x24
GPGPU-Sim PTX: allocating stack frame region for .param "param1" from 0x24 to 0x2c
GPGPU-Sim PTX: allocating stack frame region for .param "retval0" from 0x2c to 0x30
GPGPU-Sim PTX: allocating stack frame region for .param "param0" from 0x30 to 0x38
GPGPU-Sim PTX: allocating stack frame region for .param "param1" from 0x38 to 0x40
GPGPU-Sim PTX: allocating stack frame region for .param "retval0" from 0x40 to 0x44
GPGPU-Sim PTX: allocating stack frame region for .param "param0" from 0x44 to 0x4c
GPGPU-Sim PTX: allocating stack frame region for .param "param1" from 0x4c to 0x54
GPGPU-Sim PTX: allocating stack frame region for .param "retval0" from 0x54 to 0x58
GPGPU-Sim PTX: allocating stack frame region for .param "param0" from 0x58 to 0x60
GPGPU-Sim PTX: allocating stack frame region for .param "param1" from 0x60 to 0x68
GPGPU-Sim PTX: allocating stack frame region for .param "retval0" from 0x68 to 0x6c
GPGPU-Sim PTX: Warning -- ignoring pragma 'nounroll'
GPGPU-Sim PTX: allocating stack frame region for .param "param0" from 0x6c to 0x74
GPGPU-Sim PTX: allocating stack frame region for .param "param1" from 0x74 to 0x7c
GPGPU-Sim PTX: allocating stack frame region for .param "retval0" from 0x7c to 0x80
GPGPU-Sim PTX: allocating stack frame region for .param "param0" from 0x80 to 0x88
GPGPU-Sim PTX: allocating stack frame region for .param "param1" from 0x88 to 0x90
GPGPU-Sim PTX: allocating stack frame region for .param "retval0" from 0x90 to 0x94
GPGPU-Sim PTX: instruction assembly for function '_Z8print1x114ComponentSpace'...   done.
GPGPU-Sim PTX: instruction assembly for function '_Z7dinitcsjPjS_'...   done.
GPGPU-Sim PTX: instruction assembly for function '_Z5dinitiPjS_S_PbS_'...   done.
GPGPU-Sim PTX: instruction assembly for function '_Z11dfindeleminiPiS_S_Pj14ComponentSpaceS0_S0_S0_'...   done.
GPGPU-Sim PTX: instruction assembly for function '_Z12dfindelemin2iPiS_S_14ComponentSpacePjS1_S1_S1_'...   done.
GPGPU-Sim PTX: instruction assembly for function '_Z15verify_min_elemiPiS_S_14ComponentSpacePjS1_PbS1_'...   done.
GPGPU-Sim PTX: instruction assembly for function '_Z15dfindcompmintwoiPj14ComponentSpaceS_S_S_Pb13GlobalBarrierS1_S_'...   done.
GPGPU-Sim PTX: instruction assembly for function '_ZN3cub11EmptyKernelIvEEvv'...   done.
GPGPU-Sim PTX: finished parsing EMBEDDED .ptx file mst_topo.1.sm_75.ptx
GPGPU-Sim PTX: loading globals with explicit initializers... 
GPGPU-Sim PTX:     initializing '$str' ...  wrote 21 bytes
GPGPU-Sim PTX:     initializing '$str$1' ...  wrote 12 bytes
GPGPU-Sim PTX: finished loading globals (33 bytes total).
GPGPU-Sim PTX: loading constants with explicit initializers...  done.
GPGPU-Sim PTX: Loading PTXInfo from mst_topo.1.sm_75.ptx
GPGPU-Sim PTX: Kernel '_ZN3cub11EmptyKernelIvEEvv' : regs=4, lmem=0, smem=0, cmem=352
GPGPU-Sim PTX: Kernel '_Z15dfindcompmintwoiPj14ComponentSpaceS_S_S_Pb13GlobalBarrierS1_S_' : regs=23, lmem=0, smem=0, cmem=456
GPGPU-Sim PTX: Kernel '_Z15verify_min_elemiPiS_S_14ComponentSpacePjS1_PbS1_' : regs=18, lmem=0, smem=0, cmem=448
GPGPU-Sim PTX: Kernel '_Z12dfindelemin2iPiS_S_14ComponentSpacePjS1_S1_S1_' : regs=18, lmem=0, smem=0, cmem=448
GPGPU-Sim PTX: Kernel '_Z11dfindeleminiPiS_S_Pj14ComponentSpaceS0_S0_S0_' : regs=22, lmem=0, smem=0, cmem=448
GPGPU-Sim PTX: Kernel '_Z5dinitiPjS_S_PbS_' : regs=18, lmem=0, smem=0, cmem=400
GPGPU-Sim PTX: Kernel '_Z7dinitcsjPjS_' : regs=12, lmem=0, smem=0, cmem=376
GPGPU-Sim PTX: Kernel '_Z8print1x114ComponentSpace' : regs=30, lmem=0, smem=0, cmem=384
GPGPU-Sim PTX: __cudaRegisterFunction _Z15dfindcompmintwoiPj14ComponentSpaceS_S_S_Pb13GlobalBarrierS1_S_ : hostFun 0x0x55c9f16cb35a, fat_cubin_handle = 1
GPGPU-Sim PTX: __cudaRegisterFunction _Z15verify_min_elemiPiS_S_14ComponentSpacePjS1_PbS1_ : hostFun 0x0x55c9f16cb063, fat_cubin_handle = 1
GPGPU-Sim PTX: __cudaRegisterFunction _Z12dfindelemin2iPiS_S_14ComponentSpacePjS1_S1_S1_ : hostFun 0x0x55c9f16cade5, fat_cubin_handle = 1
GPGPU-Sim PTX: __cudaRegisterFunction _Z11dfindeleminiPiS_S_Pj14ComponentSpaceS0_S0_S0_ : hostFun 0x0x55c9f16cab67, fat_cubin_handle = 1
GPGPU-Sim PTX: __cudaRegisterFunction _Z5dinitiPjS_S_PbS_ : hostFun 0x0x55c9f16ca8f7, fat_cubin_handle = 1
GPGPU-Sim PTX: __cudaRegisterFunction _Z7dinitcsjPjS_ : hostFun 0x0x55c9f16ca719, fat_cubin_handle = 1
GPGPU-Sim PTX: __cudaRegisterFunction _Z8print1x114ComponentSpace : hostFun 0x0x55c9f16ca5b3, fat_cubin_handle = 1
GPGPU-Sim PTX: __cudaRegisterVar: hostVar = 0x55c9f16df0a8; deviceAddress = g_mutex; deviceName = g_mutex
GPGPU-Sim PTX: __cudaRegisterVar: Registering const memory space of 4 bytes
GPGPU-Sim PTX registering global g_mutex hostVar to name mapping
GPGPU-Sim PTX: __cudaRegisterVar: hostVar = 0x55c9f16d02d1; deviceAddress = _ZN37_INTERNAL_8cb3f789_7_main_cu_07b28d9b6thrust6system6detail10sequential3seqE; deviceName = _ZN37_INTERNAL_8cb3f789_7_main_cu_07b28d9b6thrust6system6detail10sequential3seqE
GPGPU-Sim PTX: __cudaRegisterVar: Registering const memory space of 1 bytes
GPGPU-Sim PTX registering global _ZN37_INTERNAL_8cb3f789_7_main_cu_07b28d9b6thrust6system6detail10sequential3seqE hostVar to name mapping
GPGPU-Sim PTX: __cudaRegisterVar: hostVar = 0x55c9f16d040c; deviceAddress = _ZN37_INTERNAL_8cb3f789_7_main_cu_07b28d9b6thrust12placeholders2_1E; deviceName = _ZN37_INTERNAL_8cb3f789_7_main_cu_07b28d9b6thrust12placeholders2_1E
GPGPU-Sim PTX: __cudaRegisterVar: Registering const memory space of 1 bytes
GPGPU-Sim PTX registering global _ZN37_INTERNAL_8cb3f789_7_main_cu_07b28d9b6thrust12placeholders2_1E hostVar to name mapping
GPGPU-Sim PTX: __cudaRegisterVar: hostVar = 0x55c9f16d040d; deviceAddress = _ZN37_INTERNAL_8cb3f789_7_main_cu_07b28d9b6thrust12placeholders2_2E; deviceName = _ZN37_INTERNAL_8cb3f789_7_main_cu_07b28d9b6thrust12placeholders2_2E
GPGPU-Sim PTX: __cudaRegisterVar: Registering const memory space of 1 bytes
GPGPU-Sim PTX registering global _ZN37_INTERNAL_8cb3f789_7_main_cu_07b28d9b6thrust12placeholders2_2E hostVar to name mapping
GPGPU-Sim PTX: __cudaRegisterVar: hostVar = 0x55c9f16d040e; deviceAddress = _ZN37_INTERNAL_8cb3f789_7_main_cu_07b28d9b6thrust12placeholders2_3E; deviceName = _ZN37_INTERNAL_8cb3f789_7_main_cu_07b28d9b6thrust12placeholders2_3E
GPGPU-Sim PTX: __cudaRegisterVar: Registering const memory space of 1 bytes
GPGPU-Sim PTX registering global _ZN37_INTERNAL_8cb3f789_7_main_cu_07b28d9b6thrust12placeholders2_3E hostVar to name mapping
GPGPU-Sim PTX: __cudaRegisterVar: hostVar = 0x55c9f16d040f; deviceAddress = _ZN37_INTERNAL_8cb3f789_7_main_cu_07b28d9b6thrust12placeholders2_4E; deviceName = _ZN37_INTERNAL_8cb3f789_7_main_cu_07b28d9b6thrust12placeholders2_4E
GPGPU-Sim PTX: __cudaRegisterVar: Registering const memory space of 1 bytes
GPGPU-Sim PTX registering global _ZN37_INTERNAL_8cb3f789_7_main_cu_07b28d9b6thrust12placeholders2_4E hostVar to name mapping
GPGPU-Sim PTX: __cudaRegisterVar: hostVar = 0x55c9f16d0410; deviceAddress = _ZN37_INTERNAL_8cb3f789_7_main_cu_07b28d9b6thrust12placeholders2_5E; deviceName = _ZN37_INTERNAL_8cb3f789_7_main_cu_07b28d9b6thrust12placeholders2_5E
GPGPU-Sim PTX: __cudaRegisterVar: Registering const memory space of 1 bytes
GPGPU-Sim PTX registering global _ZN37_INTERNAL_8cb3f789_7_main_cu_07b28d9b6thrust12placeholders2_5E hostVar to name mapping
GPGPU-Sim PTX: __cudaRegisterVar: hostVar = 0x55c9f16d0411; deviceAddress = _ZN37_INTERNAL_8cb3f789_7_main_cu_07b28d9b6thrust12placeholders2_6E; deviceName = _ZN37_INTERNAL_8cb3f789_7_main_cu_07b28d9b6thrust12placeholders2_6E
GPGPU-Sim PTX: __cudaRegisterVar: Registering const memory space of 1 bytes
GPGPU-Sim PTX registering global _ZN37_INTERNAL_8cb3f789_7_main_cu_07b28d9b6thrust12placeholders2_6E hostVar to name mapping
GPGPU-Sim PTX: __cudaRegisterVar: hostVar = 0x55c9f16d0412; deviceAddress = _ZN37_INTERNAL_8cb3f789_7_main_cu_07b28d9b6thrust12placeholders2_7E; deviceName = _ZN37_INTERNAL_8cb3f789_7_main_cu_07b28d9b6thrust12placeholders2_7E
GPGPU-Sim PTX: __cudaRegisterVar: Registering const memory space of 1 bytes
GPGPU-Sim PTX registering global _ZN37_INTERNAL_8cb3f789_7_main_cu_07b28d9b6thrust12placeholders2_7E hostVar to name mapping
GPGPU-Sim PTX: __cudaRegisterVar: hostVar = 0x55c9f16d0413; deviceAddress = _ZN37_INTERNAL_8cb3f789_7_main_cu_07b28d9b6thrust12placeholders2_8E; deviceName = _ZN37_INTERNAL_8cb3f789_7_main_cu_07b28d9b6thrust12placeholders2_8E
GPGPU-Sim PTX: __cudaRegisterVar: Registering const memory space of 1 bytes
GPGPU-Sim PTX registering global _ZN37_INTERNAL_8cb3f789_7_main_cu_07b28d9b6thrust12placeholders2_8E hostVar to name mapping
GPGPU-Sim PTX: __cudaRegisterVar: hostVar = 0x55c9f16d0414; deviceAddress = _ZN37_INTERNAL_8cb3f789_7_main_cu_07b28d9b6thrust12placeholders2_9E; deviceName = _ZN37_INTERNAL_8cb3f789_7_main_cu_07b28d9b6thrust12placeholders2_9E
GPGPU-Sim PTX: __cudaRegisterVar: Registering const memory space of 1 bytes
GPGPU-Sim PTX registering global _ZN37_INTERNAL_8cb3f789_7_main_cu_07b28d9b6thrust12placeholders2_9E hostVar to name mapping
GPGPU-Sim PTX: __cudaRegisterVar: hostVar = 0x55c9f16d0415; deviceAddress = _ZN37_INTERNAL_8cb3f789_7_main_cu_07b28d9b6thrust12placeholders3_10E; deviceName = _ZN37_INTERNAL_8cb3f789_7_main_cu_07b28d9b6thrust12placeholders3_10E
GPGPU-Sim PTX: __cudaRegisterVar: Registering const memory space of 1 bytes
GPGPU-Sim PTX registering global _ZN37_INTERNAL_8cb3f789_7_main_cu_07b28d9b6thrust12placeholders3_10E hostVar to name mapping
Minimum Spanning Tree by Xuhao Chen
Reading (.mtx) input file ../CudaBenchmarks/gardenia/datasets/italy_osm.mtx
Before cleaning, the original num_vertices 6686493 num_edges 7013978
Sorting the neighbor lists... Done
Removing self loops... 0 selfloops are removed
Removing redundent edges... 0 redundent edges are removed
num_vertices 6686493 num_edges 14027956
	runtime [read_graph] = 14572.838000 ms.
Calculating degree... Done
Found 1 devices
  Device[0]: GPGPU-Sim_vGPGPU-Sim Simulator Version 4.2.0 
  Compute capability: 7.5
  Warp size: 32
  Total # SM: 30
  Total # CUDA cores: 1920
  Total amount of shared memory per block: 49152 bytes
  Total # registers per block: 65536
  Total amount of constant memory: 1073741824 bytes
  Total global memory: 2.0 GB
  Memory Clock Rate: 0.00 GHz
  Memory Bus Width: 0 bits
  Peak Memory Bandwidth: 0.00 GB/s

GPGPU-Sim PTX: cudaMemcpyToSymbol: symbol = 0x55c9f16df0a8
GPGPU-Sim PTX: starting gpgpu_ptx_sim_memcpy_symbol with hostVar 0x0x55c9f16df0a8
GPGPU-Sim PTX: gpgpu_ptx_sim_memcpy_symbol: Found PTX symbol w/ hostVar=0x55c9f16df0a8
GPGPU-Sim PTX: gpgpu_ptx_sim_memcpy_symbol: copying global memory 4 bytes  to  symbol g_mutex+0 @0x100 ...
GPGPU-Sim PTX: Setting up arguments for 4 bytes starting at 0x7ffed451ff5c..
GPGPU-Sim PTX: Setting up arguments for 8 bytes starting at 0x7ffed451ff50..
GPGPU-Sim PTX: Setting up arguments for 8 bytes starting at 0x7ffed451ff48..

GPGPU-Sim PTX: cudaLaunch for 0x0x55c9f16ca719 (mode=performance simulation) on stream 0
GPGPU-Sim PTX: finding reconvergence points for '_Z7dinitcsjPjS_'...
GPGPU-Sim PTX: Finding dominators for '_Z7dinitcsjPjS_'...
GPGPU-Sim PTX: Finding immediate dominators for '_Z7dinitcsjPjS_'...
GPGPU-Sim PTX: Finding postdominators for '_Z7dinitcsjPjS_'...
GPGPU-Sim PTX: Finding immediate postdominators for '_Z7dinitcsjPjS_'...
GPGPU-Sim PTX: pre-decoding instructions for '_Z7dinitcsjPjS_'...
GPGPU-Sim PTX: reconvergence points for _Z7dinitcsjPjS_...
GPGPU-Sim PTX:  1 (potential) branch divergence @  PC=0x2b8 (mst_topo.1.sm_75.ptx:237) @%p1 bra $L__BB1_2;

GPGPU-Sim PTX:    immediate post dominator      @  PC=0x300 (mst_topo.1.sm_75.ptx:249) ret;

GPGPU-Sim PTX: ... end of reconvergence points for _Z7dinitcsjPjS_
GPGPU-Sim PTX: ... done pre-decoding instructions for '_Z7dinitcsjPjS_'.
GPGPU-Sim PTX: pushing kernel '_Z7dinitcsjPjS_' to stream 0, gridDim= (6530,1,1) blockDim = (1024,1,1) 
GPGPU-Sim uArch: Shader 0 bind to kernel 1 '_Z7dinitcsjPjS_'
GPGPU-Sim uArch: CTA/core = 1, limited by: threads
GPGPU-Sim: Reconfigure L1 cache to 64KB
GPGPU-Sim uArch: Shader 1 bind to kernel 1 '_Z7dinitcsjPjS_'
GPGPU-Sim uArch: Shader 2 bind to kernel 1 '_Z7dinitcsjPjS_'
GPGPU-Sim uArch: Shader 3 bind to kernel 1 '_Z7dinitcsjPjS_'
GPGPU-Sim uArch: Shader 4 bind to kernel 1 '_Z7dinitcsjPjS_'
GPGPU-Sim uArch: Shader 5 bind to kernel 1 '_Z7dinitcsjPjS_'
GPGPU-Sim uArch: Shader 6 bind to kernel 1 '_Z7dinitcsjPjS_'
GPGPU-Sim uArch: Shader 7 bind to kernel 1 '_Z7dinitcsjPjS_'
GPGPU-Sim uArch: Shader 8 bind to kernel 1 '_Z7dinitcsjPjS_'
GPGPU-Sim uArch: Shader 9 bind to kernel 1 '_Z7dinitcsjPjS_'
GPGPU-Sim uArch: Shader 10 bind to kernel 1 '_Z7dinitcsjPjS_'
GPGPU-Sim uArch: Shader 11 bind to kernel 1 '_Z7dinitcsjPjS_'
GPGPU-Sim uArch: Shader 12 bind to kernel 1 '_Z7dinitcsjPjS_'
GPGPU-Sim uArch: Shader 13 bind to kernel 1 '_Z7dinitcsjPjS_'
GPGPU-Sim uArch: Shader 14 bind to kernel 1 '_Z7dinitcsjPjS_'
GPGPU-Sim uArch: Shader 15 bind to kernel 1 '_Z7dinitcsjPjS_'
GPGPU-Sim uArch: Shader 16 bind to kernel 1 '_Z7dinitcsjPjS_'
GPGPU-Sim uArch: Shader 17 bind to kernel 1 '_Z7dinitcsjPjS_'
GPGPU-Sim uArch: Shader 18 bind to kernel 1 '_Z7dinitcsjPjS_'
GPGPU-Sim uArch: Shader 19 bind to kernel 1 '_Z7dinitcsjPjS_'
GPGPU-Sim uArch: Shader 20 bind to kernel 1 '_Z7dinitcsjPjS_'
GPGPU-Sim uArch: Shader 21 bind to kernel 1 '_Z7dinitcsjPjS_'
GPGPU-Sim uArch: Shader 22 bind to kernel 1 '_Z7dinitcsjPjS_'
GPGPU-Sim uArch: Shader 23 bind to kernel 1 '_Z7dinitcsjPjS_'
GPGPU-Sim uArch: Shader 24 bind to kernel 1 '_Z7dinitcsjPjS_'
GPGPU-Sim uArch: Shader 25 bind to kernel 1 '_Z7dinitcsjPjS_'
GPGPU-Sim uArch: Shader 26 bind to kernel 1 '_Z7dinitcsjPjS_'
GPGPU-Sim uArch: Shader 27 bind to kernel 1 '_Z7dinitcsjPjS_'
GPGPU-Sim uArch: Shader 28 bind to kernel 1 '_Z7dinitcsjPjS_'
GPGPU-Sim uArch: Shader 29 bind to kernel 1 '_Z7dinitcsjPjS_'
GPGPU-Sim uArch: Shader 0 bind to kernel 1 '_Z7dinitcsjPjS_'
GPGPU-Sim uArch: Shader 3 bind to kernel 1 '_Z7dinitcsjPjS_'
GPGPU-Sim uArch: Shader 6 bind to kernel 1 '_Z7dinitcsjPjS_'
GPGPU-Sim uArch: Shader 9 bind to kernel 1 '_Z7dinitcsjPjS_'
GPGPU-Sim uArch: Shader 12 bind to kernel 1 '_Z7dinitcsjPjS_'
GPGPU-Sim uArch: Shader 1 bind to kernel 1 '_Z7dinitcsjPjS_'
GPGPU-Sim uArch: Shader 5 bind to kernel 1 '_Z7dinitcsjPjS_'
GPGPU-Sim uArch: Shader 8 bind to kernel 1 '_Z7dinitcsjPjS_'
GPGPU-Sim uArch: Shader 11 bind to kernel 1 '_Z7dinitcsjPjS_'
GPGPU-Sim uArch: Shader 4 bind to kernel 1 '_Z7dinitcsjPjS_'
GPGPU-Sim uArch: Shader 14 bind to kernel 1 '_Z7dinitcsjPjS_'
GPGPU-Sim uArch: Shader 15 bind to kernel 1 '_Z7dinitcsjPjS_'
GPGPU-Sim uArch: Shader 20 bind to kernel 1 '_Z7dinitcsjPjS_'
GPGPU-Sim uArch: Shader 7 bind to kernel 1 '_Z7dinitcsjPjS_'
GPGPU-Sim uArch: Shader 10 bind to kernel 1 '_Z7dinitcsjPjS_'
GPGPU-Sim uArch: Shader 13 bind to kernel 1 '_Z7dinitcsjPjS_'
GPGPU-Sim uArch: Shader 18 bind to kernel 1 '_Z7dinitcsjPjS_'
GPGPU-Sim uArch: Shader 16 bind to kernel 1 '_Z7dinitcsjPjS_'
GPGPU-Sim uArch: Shader 17 bind to kernel 1 '_Z7dinitcsjPjS_'
GPGPU-Sim uArch: Shader 21 bind to kernel 1 '_Z7dinitcsjPjS_'
GPGPU-Sim uArch: Shader 19 bind to kernel 1 '_Z7dinitcsjPjS_'
GPGPU-Sim uArch: Shader 24 bind to kernel 1 '_Z7dinitcsjPjS_'
GPGPU-Sim uArch: Shader 23 bind to kernel 1 '_Z7dinitcsjPjS_'
GPGPU-Sim uArch: Shader 22 bind to kernel 1 '_Z7dinitcsjPjS_'
GPGPU-Sim uArch: Shader 27 bind to kernel 1 '_Z7dinitcsjPjS_'
GPGPU-Sim uArch: Shader 2 bind to kernel 1 '_Z7dinitcsjPjS_'
GPGPU-Sim uArch: Shader 26 bind to kernel 1 '_Z7dinitcsjPjS_'
GPGPU-Sim uArch: Shader 28 bind to kernel 1 '_Z7dinitcsjPjS_'
GPGPU-Sim uArch: Shader 29 bind to kernel 1 '_Z7dinitcsjPjS_'
GPGPU-Sim uArch: Shader 25 bind to kernel 1 '_Z7dinitcsjPjS_'
GPGPU-Sim uArch: Shader 3 bind to kernel 1 '_Z7dinitcsjPjS_'
GPGPU-Sim uArch: Shader 0 bind to kernel 1 '_Z7dinitcsjPjS_'
GPGPU-Sim uArch: Shader 6 bind to kernel 1 '_Z7dinitcsjPjS_'
GPGPU-Sim uArch: Shader 7 bind to kernel 1 '_Z7dinitcsjPjS_'
GPGPU-Sim uArch: Shader 8 bind to kernel 1 '_Z7dinitcsjPjS_'
GPGPU-Sim uArch: Shader 5 bind to kernel 1 '_Z7dinitcsjPjS_'
GPGPU-Sim uArch: Shader 1 bind to kernel 1 '_Z7dinitcsjPjS_'
GPGPU-Sim uArch: Shader 12 bind to kernel 1 '_Z7dinitcsjPjS_'
GPGPU-Sim uArch: Shader 4 bind to kernel 1 '_Z7dinitcsjPjS_'
GPGPU-Sim uArch: Shader 11 bind to kernel 1 '_Z7dinitcsjPjS_'
GPGPU-Sim uArch: Shader 17 bind to kernel 1 '_Z7dinitcsjPjS_'
GPGPU-Sim uArch: Shader 20 bind to kernel 1 '_Z7dinitcsjPjS_'
GPGPU-Sim uArch: Shader 16 bind to kernel 1 '_Z7dinitcsjPjS_'
GPGPU-Sim uArch: Shader 15 bind to kernel 1 '_Z7dinitcsjPjS_'
GPGPU-Sim uArch: Shader 9 bind to kernel 1 '_Z7dinitcsjPjS_'
GPGPU-Sim uArch: Shader 14 bind to kernel 1 '_Z7dinitcsjPjS_'
GPGPU-Sim uArch: Shader 10 bind to kernel 1 '_Z7dinitcsjPjS_'
GPGPU-Sim uArch: Shader 19 bind to kernel 1 '_Z7dinitcsjPjS_'
GPGPU-Sim uArch: Shader 24 bind to kernel 1 '_Z7dinitcsjPjS_'
GPGPU-Sim uArch: Shader 26 bind to kernel 1 '_Z7dinitcsjPjS_'
GPGPU-Sim uArch: Shader 13 bind to kernel 1 '_Z7dinitcsjPjS_'
GPGPU-Sim uArch: Shader 21 bind to kernel 1 '_Z7dinitcsjPjS_'
GPGPU-Sim uArch: Shader 25 bind to kernel 1 '_Z7dinitcsjPjS_'
GPGPU-Sim uArch: Shader 27 bind to kernel 1 '_Z7dinitcsjPjS_'
GPGPU-Sim uArch: Shader 23 bind to kernel 1 '_Z7dinitcsjPjS_'
GPGPU-Sim uArch: Shader 28 bind to kernel 1 '_Z7dinitcsjPjS_'
GPGPU-Sim uArch: Shader 22 bind to kernel 1 '_Z7dinitcsjPjS_'
GPGPU-Sim uArch: Shader 18 bind to kernel 1 '_Z7dinitcsjPjS_'
GPGPU-Sim uArch: Shader 2 bind to kernel 1 '_Z7dinitcsjPjS_'
GPGPU-Sim uArch: Shader 29 bind to kernel 1 '_Z7dinitcsjPjS_'
GPGPU-Sim uArch: Shader 3 bind to kernel 1 '_Z7dinitcsjPjS_'
GPGPU-Sim uArch: Shader 0 bind to kernel 1 '_Z7dinitcsjPjS_'
GPGPU-Sim uArch: Shader 6 bind to kernel 1 '_Z7dinitcsjPjS_'
GPGPU-Sim uArch: Shader 5 bind to kernel 1 '_Z7dinitcsjPjS_'
GPGPU-Sim uArch: Shader 1 bind to kernel 1 '_Z7dinitcsjPjS_'
GPGPU-Sim uArch: Shader 7 bind to kernel 1 '_Z7dinitcsjPjS_'
GPGPU-Sim uArch: Shader 8 bind to kernel 1 '_Z7dinitcsjPjS_'
GPGPU-Sim uArch: Shader 12 bind to kernel 1 '_Z7dinitcsjPjS_'
GPGPU-Sim uArch: Shader 11 bind to kernel 1 '_Z7dinitcsjPjS_'
GPGPU-Sim uArch: Shader 25 bind to kernel 1 '_Z7dinitcsjPjS_'
GPGPU-Sim uArch: Shader 26 bind to kernel 1 '_Z7dinitcsjPjS_'
GPGPU-Sim uArch: Shader 16 bind to kernel 1 '_Z7dinitcsjPjS_'
GPGPU-Sim uArch: Shader 14 bind to kernel 1 '_Z7dinitcsjPjS_'
GPGPU-Sim uArch: Shader 17 bind to kernel 1 '_Z7dinitcsjPjS_'
GPGPU-Sim uArch: Shader 24 bind to kernel 1 '_Z7dinitcsjPjS_'
GPGPU-Sim uArch: Shader 4 bind to kernel 1 '_Z7dinitcsjPjS_'
GPGPU-Sim uArch: Shader 9 bind to kernel 1 '_Z7dinitcsjPjS_'
GPGPU-Sim uArch: Shader 10 bind to kernel 1 '_Z7dinitcsjPjS_'
GPGPU-Sim uArch: Shader 2 bind to kernel 1 '_Z7dinitcsjPjS_'
GPGPU-Sim uArch: Shader 15 bind to kernel 1 '_Z7dinitcsjPjS_'
GPGPU-Sim uArch: Shader 20 bind to kernel 1 '_Z7dinitcsjPjS_'
GPGPU-Sim uArch: Shader 23 bind to kernel 1 '_Z7dinitcsjPjS_'
GPGPU-Sim uArch: Shader 18 bind to kernel 1 '_Z7dinitcsjPjS_'
GPGPU-Sim uArch: Shader 28 bind to kernel 1 '_Z7dinitcsjPjS_'
GPGPU-Sim uArch: Shader 29 bind to kernel 1 '_Z7dinitcsjPjS_'
GPGPU-Sim uArch: Shader 21 bind to kernel 1 '_Z7dinitcsjPjS_'
GPGPU-Sim uArch: Shader 19 bind to kernel 1 '_Z7dinitcsjPjS_'
GPGPU-Sim uArch: Shader 13 bind to kernel 1 '_Z7dinitcsjPjS_'
GPGPU-Sim uArch: Shader 27 bind to kernel 1 '_Z7dinitcsjPjS_'
GPGPU-Sim uArch: Shader 22 bind to kernel 1 '_Z7dinitcsjPjS_'
GPGPU-Sim uArch: Shader 3 bind to kernel 1 '_Z7dinitcsjPjS_'
GPGPU-Sim uArch: Shader 5 bind to kernel 1 '_Z7dinitcsjPjS_'
GPGPU-Sim uArch: Shader 0 bind to kernel 1 '_Z7dinitcsjPjS_'
GPGPU-Sim uArch: Shader 6 bind to kernel 1 '_Z7dinitcsjPjS_'
GPGPU-Sim uArch: Shader 1 bind to kernel 1 '_Z7dinitcsjPjS_'
GPGPU-Sim uArch: Shader 7 bind to kernel 1 '_Z7dinitcsjPjS_'
GPGPU-Sim uArch: Shader 8 bind to kernel 1 '_Z7dinitcsjPjS_'
GPGPU-Sim uArch: Shader 12 bind to kernel 1 '_Z7dinitcsjPjS_'
GPGPU-Sim uArch: Shader 25 bind to kernel 1 '_Z7dinitcsjPjS_'
GPGPU-Sim uArch: Shader 11 bind to kernel 1 '_Z7dinitcsjPjS_'
GPGPU-Sim uArch: Shader 26 bind to kernel 1 '_Z7dinitcsjPjS_'
GPGPU-Sim uArch: Shader 24 bind to kernel 1 '_Z7dinitcsjPjS_'
GPGPU-Sim uArch: Shader 2 bind to kernel 1 '_Z7dinitcsjPjS_'
GPGPU-Sim uArch: Shader 4 bind to kernel 1 '_Z7dinitcsjPjS_'
GPGPU-Sim uArch: Shader 17 bind to kernel 1 '_Z7dinitcsjPjS_'
GPGPU-Sim uArch: Shader 16 bind to kernel 1 '_Z7dinitcsjPjS_'
GPGPU-Sim uArch: Shader 14 bind to kernel 1 '_Z7dinitcsjPjS_'
GPGPU-Sim uArch: Shader 10 bind to kernel 1 '_Z7dinitcsjPjS_'
GPGPU-Sim uArch: Shader 20 bind to kernel 1 '_Z7dinitcsjPjS_'
GPGPU-Sim uArch: Shader 9 bind to kernel 1 '_Z7dinitcsjPjS_'
GPGPU-Sim uArch: Shader 15 bind to kernel 1 '_Z7dinitcsjPjS_'
GPGPU-Sim uArch: Shader 28 bind to kernel 1 '_Z7dinitcsjPjS_'
GPGPU-Sim uArch: Shader 13 bind to kernel 1 '_Z7dinitcsjPjS_'
GPGPU-Sim uArch: Shader 18 bind to kernel 1 '_Z7dinitcsjPjS_'
GPGPU-Sim uArch: Shader 19 bind to kernel 1 '_Z7dinitcsjPjS_'
GPGPU-Sim uArch: Shader 22 bind to kernel 1 '_Z7dinitcsjPjS_'
GPGPU-Sim uArch: Shader 23 bind to kernel 1 '_Z7dinitcsjPjS_'
GPGPU-Sim uArch: Shader 29 bind to kernel 1 '_Z7dinitcsjPjS_'
GPGPU-Sim uArch: Shader 21 bind to kernel 1 '_Z7dinitcsjPjS_'
GPGPU-Sim uArch: Shader 27 bind to kernel 1 '_Z7dinitcsjPjS_'
GPGPU-Sim uArch: Shader 3 bind to kernel 1 '_Z7dinitcsjPjS_'
GPGPU-Sim uArch: Shader 5 bind to kernel 1 '_Z7dinitcsjPjS_'
GPGPU-Sim uArch: Shader 1 bind to kernel 1 '_Z7dinitcsjPjS_'
GPGPU-Sim uArch: Shader 6 bind to kernel 1 '_Z7dinitcsjPjS_'
GPGPU-Sim uArch: Shader 0 bind to kernel 1 '_Z7dinitcsjPjS_'
GPGPU-Sim uArch: Shader 8 bind to kernel 1 '_Z7dinitcsjPjS_'
GPGPU-Sim uArch: Shader 7 bind to kernel 1 '_Z7dinitcsjPjS_'
GPGPU-Sim uArch: Shader 12 bind to kernel 1 '_Z7dinitcsjPjS_'
GPGPU-Sim uArch: Shader 25 bind to kernel 1 '_Z7dinitcsjPjS_'
GPGPU-Sim uArch: Shader 26 bind to kernel 1 '_Z7dinitcsjPjS_'
GPGPU-Sim uArch: Shader 11 bind to kernel 1 '_Z7dinitcsjPjS_'
GPGPU-Sim uArch: Shader 14 bind to kernel 1 '_Z7dinitcsjPjS_'
GPGPU-Sim uArch: Shader 24 bind to kernel 1 '_Z7dinitcsjPjS_'
GPGPU-Sim uArch: Shader 17 bind to kernel 1 '_Z7dinitcsjPjS_'
GPGPU-Sim uArch: Shader 4 bind to kernel 1 '_Z7dinitcsjPjS_'
GPGPU-Sim uArch: Shader 21 bind to kernel 1 '_Z7dinitcsjPjS_'
GPGPU-Sim uArch: Shader 22 bind to kernel 1 '_Z7dinitcsjPjS_'
GPGPU-Sim uArch: Shader 13 bind to kernel 1 '_Z7dinitcsjPjS_'
GPGPU-Sim uArch: Shader 16 bind to kernel 1 '_Z7dinitcsjPjS_'
GPGPU-Sim uArch: Shader 10 bind to kernel 1 '_Z7dinitcsjPjS_'
GPGPU-Sim uArch: Shader 15 bind to kernel 1 '_Z7dinitcsjPjS_'
GPGPU-Sim uArch: Shader 20 bind to kernel 1 '_Z7dinitcsjPjS_'
GPGPU-Sim uArch: Shader 2 bind to kernel 1 '_Z7dinitcsjPjS_'
GPGPU-Sim uArch: Shader 19 bind to kernel 1 '_Z7dinitcsjPjS_'
GPGPU-Sim uArch: Shader 9 bind to kernel 1 '_Z7dinitcsjPjS_'
GPGPU-Sim uArch: Shader 28 bind to kernel 1 '_Z7dinitcsjPjS_'
GPGPU-Sim uArch: Shader 27 bind to kernel 1 '_Z7dinitcsjPjS_'
GPGPU-Sim uArch: Shader 18 bind to kernel 1 '_Z7dinitcsjPjS_'
GPGPU-Sim uArch: Shader 29 bind to kernel 1 '_Z7dinitcsjPjS_'
GPGPU-Sim uArch: Shader 23 bind to kernel 1 '_Z7dinitcsjPjS_'
GPGPU-Sim uArch: Shader 3 bind to kernel 1 '_Z7dinitcsjPjS_'
GPGPU-Sim uArch: Shader 5 bind to kernel 1 '_Z7dinitcsjPjS_'
GPGPU-Sim uArch: Shader 1 bind to kernel 1 '_Z7dinitcsjPjS_'
GPGPU-Sim uArch: Shader 6 bind to kernel 1 '_Z7dinitcsjPjS_'
GPGPU-Sim uArch: Shader 0 bind to kernel 1 '_Z7dinitcsjPjS_'
GPGPU-Sim uArch: Shader 8 bind to kernel 1 '_Z7dinitcsjPjS_'
GPGPU-Sim uArch: Shader 12 bind to kernel 1 '_Z7dinitcsjPjS_'
GPGPU-Sim uArch: Shader 7 bind to kernel 1 '_Z7dinitcsjPjS_'
GPGPU-Sim uArch: Shader 25 bind to kernel 1 '_Z7dinitcsjPjS_'
GPGPU-Sim uArch: Shader 11 bind to kernel 1 '_Z7dinitcsjPjS_'
GPGPU-Sim uArch: Shader 26 bind to kernel 1 '_Z7dinitcsjPjS_'
GPGPU-Sim uArch: Shader 14 bind to kernel 1 '_Z7dinitcsjPjS_'
GPGPU-Sim uArch: Shader 24 bind to kernel 1 '_Z7dinitcsjPjS_'
GPGPU-Sim uArch: Shader 17 bind to kernel 1 '_Z7dinitcsjPjS_'
GPGPU-Sim uArch: Shader 4 bind to kernel 1 '_Z7dinitcsjPjS_'
GPGPU-Sim uArch: Shader 21 bind to kernel 1 '_Z7dinitcsjPjS_'
GPGPU-Sim uArch: Shader 13 bind to kernel 1 '_Z7dinitcsjPjS_'
GPGPU-Sim uArch: Shader 15 bind to kernel 1 '_Z7dinitcsjPjS_'
GPGPU-Sim uArch: Shader 22 bind to kernel 1 '_Z7dinitcsjPjS_'
GPGPU-Sim uArch: Shader 10 bind to kernel 1 '_Z7dinitcsjPjS_'
GPGPU-Sim uArch: Shader 2 bind to kernel 1 '_Z7dinitcsjPjS_'
GPGPU-Sim uArch: Shader 9 bind to kernel 1 '_Z7dinitcsjPjS_'
GPGPU-Sim uArch: Shader 20 bind to kernel 1 '_Z7dinitcsjPjS_'
GPGPU-Sim uArch: Shader 16 bind to kernel 1 '_Z7dinitcsjPjS_'
GPGPU-Sim uArch: Shader 19 bind to kernel 1 '_Z7dinitcsjPjS_'
GPGPU-Sim uArch: Shader 28 bind to kernel 1 '_Z7dinitcsjPjS_'
GPGPU-Sim uArch: Shader 29 bind to kernel 1 '_Z7dinitcsjPjS_'
GPGPU-Sim uArch: Shader 18 bind to kernel 1 '_Z7dinitcsjPjS_'
GPGPU-Sim uArch: Shader 27 bind to kernel 1 '_Z7dinitcsjPjS_'
GPGPU-Sim uArch: Shader 23 bind to kernel 1 '_Z7dinitcsjPjS_'
GPGPU-Sim uArch: Shader 3 bind to kernel 1 '_Z7dinitcsjPjS_'
GPGPU-Sim uArch: Shader 5 bind to kernel 1 '_Z7dinitcsjPjS_'
GPGPU-Sim uArch: Shader 1 bind to kernel 1 '_Z7dinitcsjPjS_'
GPGPU-Sim uArch: Shader 0 bind to kernel 1 '_Z7dinitcsjPjS_'
GPGPU-Sim uArch: Shader 8 bind to kernel 1 '_Z7dinitcsjPjS_'
GPGPU-Sim uArch: Shader 6 bind to kernel 1 '_Z7dinitcsjPjS_'
GPGPU-Sim uArch: Shader 12 bind to kernel 1 '_Z7dinitcsjPjS_'
GPGPU-Sim uArch: Shader 7 bind to kernel 1 '_Z7dinitcsjPjS_'
GPGPU-Sim uArch: Shader 25 bind to kernel 1 '_Z7dinitcsjPjS_'
GPGPU-Sim uArch: Shader 26 bind to kernel 1 '_Z7dinitcsjPjS_'
GPGPU-Sim uArch: Shader 11 bind to kernel 1 '_Z7dinitcsjPjS_'
GPGPU-Sim uArch: Shader 14 bind to kernel 1 '_Z7dinitcsjPjS_'
GPGPU-Sim uArch: Shader 17 bind to kernel 1 '_Z7dinitcsjPjS_'
GPGPU-Sim uArch: Shader 24 bind to kernel 1 '_Z7dinitcsjPjS_'
GPGPU-Sim uArch: Shader 4 bind to kernel 1 '_Z7dinitcsjPjS_'
GPGPU-Sim uArch: Shader 15 bind to kernel 1 '_Z7dinitcsjPjS_'
GPGPU-Sim uArch: Shader 29 bind to kernel 1 '_Z7dinitcsjPjS_'
GPGPU-Sim uArch: Shader 28 bind to kernel 1 '_Z7dinitcsjPjS_'
GPGPU-Sim uArch: Shader 21 bind to kernel 1 '_Z7dinitcsjPjS_'
GPGPU-Sim uArch: Shader 9 bind to kernel 1 '_Z7dinitcsjPjS_'
GPGPU-Sim uArch: Shader 20 bind to kernel 1 '_Z7dinitcsjPjS_'
GPGPU-Sim uArch: Shader 10 bind to kernel 1 '_Z7dinitcsjPjS_'
GPGPU-Sim uArch: Shader 13 bind to kernel 1 '_Z7dinitcsjPjS_'
GPGPU-Sim uArch: Shader 16 bind to kernel 1 '_Z7dinitcsjPjS_'
GPGPU-Sim uArch: Shader 27 bind to kernel 1 '_Z7dinitcsjPjS_'
GPGPU-Sim uArch: Shader 2 bind to kernel 1 '_Z7dinitcsjPjS_'
GPGPU-Sim uArch: Shader 19 bind to kernel 1 '_Z7dinitcsjPjS_'
GPGPU-Sim uArch: Shader 22 bind to kernel 1 '_Z7dinitcsjPjS_'
GPGPU-Sim uArch: Shader 23 bind to kernel 1 '_Z7dinitcsjPjS_'
GPGPU-Sim uArch: Shader 18 bind to kernel 1 '_Z7dinitcsjPjS_'
GPGPU-Sim uArch: Shader 3 bind to kernel 1 '_Z7dinitcsjPjS_'
GPGPU-Sim uArch: Shader 5 bind to kernel 1 '_Z7dinitcsjPjS_'
GPGPU-Sim uArch: Shader 0 bind to kernel 1 '_Z7dinitcsjPjS_'
GPGPU-Sim uArch: Shader 1 bind to kernel 1 '_Z7dinitcsjPjS_'
GPGPU-Sim uArch: Shader 8 bind to kernel 1 '_Z7dinitcsjPjS_'
GPGPU-Sim uArch: Shader 6 bind to kernel 1 '_Z7dinitcsjPjS_'
GPGPU-Sim uArch: Shader 12 bind to kernel 1 '_Z7dinitcsjPjS_'
GPGPU-Sim uArch: Shader 7 bind to kernel 1 '_Z7dinitcsjPjS_'
GPGPU-Sim uArch: Shader 25 bind to kernel 1 '_Z7dinitcsjPjS_'
GPGPU-Sim uArch: Shader 26 bind to kernel 1 '_Z7dinitcsjPjS_'
GPGPU-Sim uArch: Shader 11 bind to kernel 1 '_Z7dinitcsjPjS_'
GPGPU-Sim uArch: Shader 14 bind to kernel 1 '_Z7dinitcsjPjS_'
GPGPU-Sim uArch: Shader 17 bind to kernel 1 '_Z7dinitcsjPjS_'
GPGPU-Sim uArch: Shader 24 bind to kernel 1 '_Z7dinitcsjPjS_'
GPGPU-Sim uArch: Shader 29 bind to kernel 1 '_Z7dinitcsjPjS_'
GPGPU-Sim uArch: Shader 4 bind to kernel 1 '_Z7dinitcsjPjS_'
GPGPU-Sim uArch: Shader 15 bind to kernel 1 '_Z7dinitcsjPjS_'
GPGPU-Sim uArch: Shader 28 bind to kernel 1 '_Z7dinitcsjPjS_'
GPGPU-Sim uArch: Shader 22 bind to kernel 1 '_Z7dinitcsjPjS_'
GPGPU-Sim uArch: Shader 21 bind to kernel 1 '_Z7dinitcsjPjS_'
GPGPU-Sim uArch: Shader 27 bind to kernel 1 '_Z7dinitcsjPjS_'
GPGPU-Sim uArch: Shader 10 bind to kernel 1 '_Z7dinitcsjPjS_'
GPGPU-Sim uArch: Shader 13 bind to kernel 1 '_Z7dinitcsjPjS_'
GPGPU-Sim uArch: Shader 16 bind to kernel 1 '_Z7dinitcsjPjS_'
GPGPU-Sim uArch: Shader 20 bind to kernel 1 '_Z7dinitcsjPjS_'
GPGPU-Sim uArch: Shader 23 bind to kernel 1 '_Z7dinitcsjPjS_'
GPGPU-Sim uArch: Shader 9 bind to kernel 1 '_Z7dinitcsjPjS_'
GPGPU-Sim uArch: Shader 18 bind to kernel 1 '_Z7dinitcsjPjS_'
GPGPU-Sim uArch: Shader 2 bind to kernel 1 '_Z7dinitcsjPjS_'
GPGPU-Sim uArch: Shader 3 bind to kernel 1 '_Z7dinitcsjPjS_'
GPGPU-Sim uArch: Shader 19 bind to kernel 1 '_Z7dinitcsjPjS_'
GPGPU-Sim uArch: Shader 5 bind to kernel 1 '_Z7dinitcsjPjS_'
GPGPU-Sim uArch: Shader 0 bind to kernel 1 '_Z7dinitcsjPjS_'
GPGPU-Sim uArch: Shader 6 bind to kernel 1 '_Z7dinitcsjPjS_'
GPGPU-Sim uArch: Shader 8 bind to kernel 1 '_Z7dinitcsjPjS_'
GPGPU-Sim uArch: Shader 1 bind to kernel 1 '_Z7dinitcsjPjS_'
GPGPU-Sim uArch: Shader 12 bind to kernel 1 '_Z7dinitcsjPjS_'
GPGPU-Sim uArch: Shader 7 bind to kernel 1 '_Z7dinitcsjPjS_'
GPGPU-Sim uArch: Shader 25 bind to kernel 1 '_Z7dinitcsjPjS_'
GPGPU-Sim uArch: Shader 26 bind to kernel 1 '_Z7dinitcsjPjS_'
GPGPU-Sim uArch: Shader 11 bind to kernel 1 '_Z7dinitcsjPjS_'
GPGPU-Sim uArch: Shader 14 bind to kernel 1 '_Z7dinitcsjPjS_'
GPGPU-Sim uArch: Shader 17 bind to kernel 1 '_Z7dinitcsjPjS_'
GPGPU-Sim uArch: Shader 4 bind to kernel 1 '_Z7dinitcsjPjS_'
GPGPU-Sim uArch: Shader 24 bind to kernel 1 '_Z7dinitcsjPjS_'
GPGPU-Sim uArch: Shader 15 bind to kernel 1 '_Z7dinitcsjPjS_'
GPGPU-Sim uArch: Shader 28 bind to kernel 1 '_Z7dinitcsjPjS_'
GPGPU-Sim uArch: Shader 29 bind to kernel 1 '_Z7dinitcsjPjS_'
GPGPU-Sim uArch: Shader 10 bind to kernel 1 '_Z7dinitcsjPjS_'
GPGPU-Sim uArch: Shader 22 bind to kernel 1 '_Z7dinitcsjPjS_'
GPGPU-Sim uArch: Shader 21 bind to kernel 1 '_Z7dinitcsjPjS_'
GPGPU-Sim uArch: Shader 13 bind to kernel 1 '_Z7dinitcsjPjS_'
GPGPU-Sim uArch: Shader 23 bind to kernel 1 '_Z7dinitcsjPjS_'
GPGPU-Sim uArch: Shader 18 bind to kernel 1 '_Z7dinitcsjPjS_'
GPGPU-Sim uArch: Shader 19 bind to kernel 1 '_Z7dinitcsjPjS_'
GPGPU-Sim uArch: Shader 16 bind to kernel 1 '_Z7dinitcsjPjS_'
GPGPU-Sim uArch: Shader 9 bind to kernel 1 '_Z7dinitcsjPjS_'
GPGPU-Sim uArch: Shader 3 bind to kernel 1 '_Z7dinitcsjPjS_'
GPGPU-Sim uArch: Shader 20 bind to kernel 1 '_Z7dinitcsjPjS_'
GPGPU-Sim uArch: Shader 27 bind to kernel 1 '_Z7dinitcsjPjS_'
GPGPU-Sim uArch: Shader 2 bind to kernel 1 '_Z7dinitcsjPjS_'
GPGPU-Sim uArch: Shader 5 bind to kernel 1 '_Z7dinitcsjPjS_'
GPGPU-Sim uArch: Shader 6 bind to kernel 1 '_Z7dinitcsjPjS_'
GPGPU-Sim uArch: Shader 0 bind to kernel 1 '_Z7dinitcsjPjS_'
GPGPU-Sim uArch: Shader 8 bind to kernel 1 '_Z7dinitcsjPjS_'
GPGPU-Sim uArch: Shader 12 bind to kernel 1 '_Z7dinitcsjPjS_'
GPGPU-Sim uArch: Shader 1 bind to kernel 1 '_Z7dinitcsjPjS_'
GPGPU-Sim uArch: Shader 7 bind to kernel 1 '_Z7dinitcsjPjS_'
GPGPU-Sim uArch: Shader 11 bind to kernel 1 '_Z7dinitcsjPjS_'
GPGPU-Sim uArch: Shader 25 bind to kernel 1 '_Z7dinitcsjPjS_'
GPGPU-Sim uArch: Shader 26 bind to kernel 1 '_Z7dinitcsjPjS_'
GPGPU-Sim uArch: Shader 14 bind to kernel 1 '_Z7dinitcsjPjS_'
GPGPU-Sim uArch: Shader 17 bind to kernel 1 '_Z7dinitcsjPjS_'
GPGPU-Sim uArch: Shader 24 bind to kernel 1 '_Z7dinitcsjPjS_'
GPGPU-Sim uArch: Shader 4 bind to kernel 1 '_Z7dinitcsjPjS_'
GPGPU-Sim uArch: Shader 15 bind to kernel 1 '_Z7dinitcsjPjS_'
GPGPU-Sim uArch: Shader 29 bind to kernel 1 '_Z7dinitcsjPjS_'
GPGPU-Sim uArch: Shader 28 bind to kernel 1 '_Z7dinitcsjPjS_'
GPGPU-Sim uArch: Shader 10 bind to kernel 1 '_Z7dinitcsjPjS_'
GPGPU-Sim uArch: Shader 20 bind to kernel 1 '_Z7dinitcsjPjS_'
GPGPU-Sim uArch: Shader 23 bind to kernel 1 '_Z7dinitcsjPjS_'
GPGPU-Sim uArch: Shader 16 bind to kernel 1 '_Z7dinitcsjPjS_'
GPGPU-Sim uArch: Shader 21 bind to kernel 1 '_Z7dinitcsjPjS_'
GPGPU-Sim uArch: Shader 22 bind to kernel 1 '_Z7dinitcsjPjS_'
GPGPU-Sim uArch: Shader 13 bind to kernel 1 '_Z7dinitcsjPjS_'
GPGPU-Sim uArch: Shader 19 bind to kernel 1 '_Z7dinitcsjPjS_'
GPGPU-Sim uArch: Shader 9 bind to kernel 1 '_Z7dinitcsjPjS_'
GPGPU-Sim uArch: Shader 18 bind to kernel 1 '_Z7dinitcsjPjS_'
GPGPU-Sim uArch: Shader 27 bind to kernel 1 '_Z7dinitcsjPjS_'
GPGPU-Sim uArch: Shader 2 bind to kernel 1 '_Z7dinitcsjPjS_'
GPGPU-Sim uArch: Shader 3 bind to kernel 1 '_Z7dinitcsjPjS_'
GPGPU-Sim uArch: Shader 5 bind to kernel 1 '_Z7dinitcsjPjS_'
GPGPU-Sim uArch: Shader 0 bind to kernel 1 '_Z7dinitcsjPjS_'
GPGPU-Sim uArch: Shader 6 bind to kernel 1 '_Z7dinitcsjPjS_'
GPGPU-Sim uArch: Shader 1 bind to kernel 1 '_Z7dinitcsjPjS_'
GPGPU-Sim uArch: Shader 12 bind to kernel 1 '_Z7dinitcsjPjS_'
GPGPU-Sim uArch: Shader 8 bind to kernel 1 '_Z7dinitcsjPjS_'
GPGPU-Sim uArch: Shader 7 bind to kernel 1 '_Z7dinitcsjPjS_'
GPGPU-Sim uArch: Shader 25 bind to kernel 1 '_Z7dinitcsjPjS_'
GPGPU-Sim uArch: Shader 26 bind to kernel 1 '_Z7dinitcsjPjS_'
GPGPU-Sim uArch: Shader 11 bind to kernel 1 '_Z7dinitcsjPjS_'
GPGPU-Sim uArch: Shader 14 bind to kernel 1 '_Z7dinitcsjPjS_'
GPGPU-Sim uArch: Shader 17 bind to kernel 1 '_Z7dinitcsjPjS_'
GPGPU-Sim uArch: Shader 4 bind to kernel 1 '_Z7dinitcsjPjS_'
GPGPU-Sim uArch: Shader 24 bind to kernel 1 '_Z7dinitcsjPjS_'
GPGPU-Sim uArch: Shader 15 bind to kernel 1 '_Z7dinitcsjPjS_'
GPGPU-Sim uArch: Shader 28 bind to kernel 1 '_Z7dinitcsjPjS_'
GPGPU-Sim uArch: Shader 29 bind to kernel 1 '_Z7dinitcsjPjS_'
GPGPU-Sim uArch: Shader 20 bind to kernel 1 '_Z7dinitcsjPjS_'
GPGPU-Sim uArch: Shader 10 bind to kernel 1 '_Z7dinitcsjPjS_'
GPGPU-Sim uArch: Shader 23 bind to kernel 1 '_Z7dinitcsjPjS_'
GPGPU-Sim uArch: Shader 16 bind to kernel 1 '_Z7dinitcsjPjS_'
GPGPU-Sim uArch: Shader 2 bind to kernel 1 '_Z7dinitcsjPjS_'
GPGPU-Sim uArch: Shader 13 bind to kernel 1 '_Z7dinitcsjPjS_'
GPGPU-Sim uArch: Shader 21 bind to kernel 1 '_Z7dinitcsjPjS_'
GPGPU-Sim uArch: Shader 18 bind to kernel 1 '_Z7dinitcsjPjS_'
GPGPU-Sim uArch: Shader 3 bind to kernel 1 '_Z7dinitcsjPjS_'
GPGPU-Sim uArch: Shader 19 bind to kernel 1 '_Z7dinitcsjPjS_'
GPGPU-Sim uArch: Shader 9 bind to kernel 1 '_Z7dinitcsjPjS_'
GPGPU-Sim uArch: Shader 22 bind to kernel 1 '_Z7dinitcsjPjS_'
GPGPU-Sim uArch: Shader 27 bind to kernel 1 '_Z7dinitcsjPjS_'
GPGPU-Sim uArch: Shader 5 bind to kernel 1 '_Z7dinitcsjPjS_'
GPGPU-Sim uArch: Shader 1 bind to kernel 1 '_Z7dinitcsjPjS_'
GPGPU-Sim uArch: Shader 7 bind to kernel 1 '_Z7dinitcsjPjS_'
GPGPU-Sim uArch: Shader 0 bind to kernel 1 '_Z7dinitcsjPjS_'
GPGPU-Sim uArch: Shader 8 bind to kernel 1 '_Z7dinitcsjPjS_'
GPGPU-Sim uArch: Shader 6 bind to kernel 1 '_Z7dinitcsjPjS_'
GPGPU-Sim uArch: Shader 12 bind to kernel 1 '_Z7dinitcsjPjS_'
GPGPU-Sim uArch: Shader 11 bind to kernel 1 '_Z7dinitcsjPjS_'
GPGPU-Sim uArch: Shader 26 bind to kernel 1 '_Z7dinitcsjPjS_'
GPGPU-Sim uArch: Shader 25 bind to kernel 1 '_Z7dinitcsjPjS_'
GPGPU-Sim uArch: Shader 14 bind to kernel 1 '_Z7dinitcsjPjS_'
GPGPU-Sim uArch: Shader 17 bind to kernel 1 '_Z7dinitcsjPjS_'
GPGPU-Sim uArch: Shader 24 bind to kernel 1 '_Z7dinitcsjPjS_'
GPGPU-Sim uArch: Shader 4 bind to kernel 1 '_Z7dinitcsjPjS_'
GPGPU-Sim uArch: Shader 29 bind to kernel 1 '_Z7dinitcsjPjS_'
GPGPU-Sim uArch: Shader 15 bind to kernel 1 '_Z7dinitcsjPjS_'
GPGPU-Sim uArch: Shader 28 bind to kernel 1 '_Z7dinitcsjPjS_'
GPGPU-Sim uArch: Shader 10 bind to kernel 1 '_Z7dinitcsjPjS_'
GPGPU-Sim uArch: Shader 23 bind to kernel 1 '_Z7dinitcsjPjS_'
GPGPU-Sim uArch: Shader 16 bind to kernel 1 '_Z7dinitcsjPjS_'
GPGPU-Sim uArch: Shader 20 bind to kernel 1 '_Z7dinitcsjPjS_'
GPGPU-Sim uArch: Shader 2 bind to kernel 1 '_Z7dinitcsjPjS_'
GPGPU-Sim uArch: Shader 13 bind to kernel 1 '_Z7dinitcsjPjS_'
GPGPU-Sim uArch: Shader 18 bind to kernel 1 '_Z7dinitcsjPjS_'
GPGPU-Sim uArch: Shader 19 bind to kernel 1 '_Z7dinitcsjPjS_'
GPGPU-Sim uArch: Shader 22 bind to kernel 1 '_Z7dinitcsjPjS_'
GPGPU-Sim uArch: Shader 3 bind to kernel 1 '_Z7dinitcsjPjS_'
GPGPU-Sim uArch: Shader 21 bind to kernel 1 '_Z7dinitcsjPjS_'
GPGPU-Sim uArch: Shader 27 bind to kernel 1 '_Z7dinitcsjPjS_'
GPGPU-Sim uArch: Shader 9 bind to kernel 1 '_Z7dinitcsjPjS_'
GPGPU-Sim uArch: Shader 5 bind to kernel 1 '_Z7dinitcsjPjS_'
GPGPU-Sim uArch: Shader 1 bind to kernel 1 '_Z7dinitcsjPjS_'
GPGPU-Sim uArch: Shader 7 bind to kernel 1 '_Z7dinitcsjPjS_'
GPGPU-Sim uArch: Shader 0 bind to kernel 1 '_Z7dinitcsjPjS_'
GPGPU-Sim uArch: Shader 8 bind to kernel 1 '_Z7dinitcsjPjS_'
GPGPU-Sim uArch: Shader 12 bind to kernel 1 '_Z7dinitcsjPjS_'
GPGPU-Sim uArch: Shader 6 bind to kernel 1 '_Z7dinitcsjPjS_'
GPGPU-Sim uArch: Shader 11 bind to kernel 1 '_Z7dinitcsjPjS_'
GPGPU-Sim uArch: Shader 14 bind to kernel 1 '_Z7dinitcsjPjS_'
GPGPU-Sim uArch: Shader 25 bind to kernel 1 '_Z7dinitcsjPjS_'
GPGPU-Sim uArch: Shader 26 bind to kernel 1 '_Z7dinitcsjPjS_'
GPGPU-Sim uArch: Shader 17 bind to kernel 1 '_Z7dinitcsjPjS_'
GPGPU-Sim uArch: Shader 24 bind to kernel 1 '_Z7dinitcsjPjS_'
GPGPU-Sim uArch: Shader 29 bind to kernel 1 '_Z7dinitcsjPjS_'
GPGPU-Sim uArch: Shader 4 bind to kernel 1 '_Z7dinitcsjPjS_'
GPGPU-Sim uArch: Shader 28 bind to kernel 1 '_Z7dinitcsjPjS_'
GPGPU-Sim uArch: Shader 15 bind to kernel 1 '_Z7dinitcsjPjS_'
GPGPU-Sim uArch: Shader 10 bind to kernel 1 '_Z7dinitcsjPjS_'
GPGPU-Sim uArch: Shader 23 bind to kernel 1 '_Z7dinitcsjPjS_'
GPGPU-Sim uArch: Shader 16 bind to kernel 1 '_Z7dinitcsjPjS_'
GPGPU-Sim uArch: Shader 3 bind to kernel 1 '_Z7dinitcsjPjS_'
GPGPU-Sim uArch: Shader 13 bind to kernel 1 '_Z7dinitcsjPjS_'
GPGPU-Sim uArch: Shader 20 bind to kernel 1 '_Z7dinitcsjPjS_'
GPGPU-Sim uArch: Shader 2 bind to kernel 1 '_Z7dinitcsjPjS_'
GPGPU-Sim uArch: Shader 19 bind to kernel 1 '_Z7dinitcsjPjS_'
GPGPU-Sim uArch: Shader 21 bind to kernel 1 '_Z7dinitcsjPjS_'
GPGPU-Sim uArch: Shader 18 bind to kernel 1 '_Z7dinitcsjPjS_'
GPGPU-Sim uArch: Shader 22 bind to kernel 1 '_Z7dinitcsjPjS_'
GPGPU-Sim uArch: Shader 27 bind to kernel 1 '_Z7dinitcsjPjS_'
GPGPU-Sim uArch: Shader 9 bind to kernel 1 '_Z7dinitcsjPjS_'
GPGPU-Sim uArch: Shader 5 bind to kernel 1 '_Z7dinitcsjPjS_'
GPGPU-Sim uArch: Shader 7 bind to kernel 1 '_Z7dinitcsjPjS_'
GPGPU-Sim uArch: Shader 1 bind to kernel 1 '_Z7dinitcsjPjS_'
GPGPU-Sim uArch: Shader 0 bind to kernel 1 '_Z7dinitcsjPjS_'
GPGPU-Sim uArch: Shader 14 bind to kernel 1 '_Z7dinitcsjPjS_'
GPGPU-Sim uArch: Shader 12 bind to kernel 1 '_Z7dinitcsjPjS_'
GPGPU-Sim uArch: Shader 8 bind to kernel 1 '_Z7dinitcsjPjS_'
GPGPU-Sim uArch: Shader 11 bind to kernel 1 '_Z7dinitcsjPjS_'
GPGPU-Sim uArch: Shader 6 bind to kernel 1 '_Z7dinitcsjPjS_'
GPGPU-Sim uArch: Shader 25 bind to kernel 1 '_Z7dinitcsjPjS_'
GPGPU-Sim uArch: Shader 26 bind to kernel 1 '_Z7dinitcsjPjS_'
GPGPU-Sim uArch: Shader 17 bind to kernel 1 '_Z7dinitcsjPjS_'
GPGPU-Sim uArch: Shader 24 bind to kernel 1 '_Z7dinitcsjPjS_'
GPGPU-Sim uArch: Shader 29 bind to kernel 1 '_Z7dinitcsjPjS_'
GPGPU-Sim uArch: Shader 4 bind to kernel 1 '_Z7dinitcsjPjS_'
GPGPU-Sim uArch: Shader 10 bind to kernel 1 '_Z7dinitcsjPjS_'
GPGPU-Sim uArch: Shader 15 bind to kernel 1 '_Z7dinitcsjPjS_'
GPGPU-Sim uArch: Shader 28 bind to kernel 1 '_Z7dinitcsjPjS_'
GPGPU-Sim uArch: Shader 16 bind to kernel 1 '_Z7dinitcsjPjS_'
GPGPU-Sim uArch: Shader 20 bind to kernel 1 '_Z7dinitcsjPjS_'
GPGPU-Sim uArch: Shader 3 bind to kernel 1 '_Z7dinitcsjPjS_'
GPGPU-Sim uArch: Shader 13 bind to kernel 1 '_Z7dinitcsjPjS_'
GPGPU-Sim uArch: Shader 23 bind to kernel 1 '_Z7dinitcsjPjS_'
GPGPU-Sim uArch: Shader 2 bind to kernel 1 '_Z7dinitcsjPjS_'
GPGPU-Sim uArch: Shader 21 bind to kernel 1 '_Z7dinitcsjPjS_'
GPGPU-Sim uArch: Shader 22 bind to kernel 1 '_Z7dinitcsjPjS_'
GPGPU-Sim uArch: Shader 18 bind to kernel 1 '_Z7dinitcsjPjS_'
GPGPU-Sim uArch: Shader 19 bind to kernel 1 '_Z7dinitcsjPjS_'
GPGPU-Sim uArch: Shader 27 bind to kernel 1 '_Z7dinitcsjPjS_'
GPGPU-Sim uArch: Shader 5 bind to kernel 1 '_Z7dinitcsjPjS_'
GPGPU-Sim uArch: Shader 9 bind to kernel 1 '_Z7dinitcsjPjS_'
GPGPU-Sim uArch: Shader 0 bind to kernel 1 '_Z7dinitcsjPjS_'
GPGPU-Sim uArch: Shader 6 bind to kernel 1 '_Z7dinitcsjPjS_'
GPGPU-Sim uArch: Shader 7 bind to kernel 1 '_Z7dinitcsjPjS_'
GPGPU-Sim uArch: Shader 1 bind to kernel 1 '_Z7dinitcsjPjS_'
GPGPU-Sim uArch: Shader 11 bind to kernel 1 '_Z7dinitcsjPjS_'
GPGPU-Sim uArch: Shader 12 bind to kernel 1 '_Z7dinitcsjPjS_'
GPGPU-Sim uArch: Shader 14 bind to kernel 1 '_Z7dinitcsjPjS_'
GPGPU-Sim uArch: Shader 25 bind to kernel 1 '_Z7dinitcsjPjS_'
GPGPU-Sim uArch: Shader 26 bind to kernel 1 '_Z7dinitcsjPjS_'
GPGPU-Sim uArch: Shader 8 bind to kernel 1 '_Z7dinitcsjPjS_'
GPGPU-Sim uArch: Shader 17 bind to kernel 1 '_Z7dinitcsjPjS_'
GPGPU-Sim uArch: Shader 24 bind to kernel 1 '_Z7dinitcsjPjS_'
GPGPU-Sim uArch: Shader 29 bind to kernel 1 '_Z7dinitcsjPjS_'
GPGPU-Sim uArch: Shader 15 bind to kernel 1 '_Z7dinitcsjPjS_'
GPGPU-Sim uArch: Shader 13 bind to kernel 1 '_Z7dinitcsjPjS_'
GPGPU-Sim uArch: Shader 4 bind to kernel 1 '_Z7dinitcsjPjS_'
GPGPU-Sim uArch: Shader 10 bind to kernel 1 '_Z7dinitcsjPjS_'
GPGPU-Sim uArch: Shader 21 bind to kernel 1 '_Z7dinitcsjPjS_'
GPGPU-Sim uArch: Shader 18 bind to kernel 1 '_Z7dinitcsjPjS_'
GPGPU-Sim uArch: Shader 23 bind to kernel 1 '_Z7dinitcsjPjS_'
GPGPU-Sim uArch: Shader 3 bind to kernel 1 '_Z7dinitcsjPjS_'
GPGPU-Sim uArch: Shader 16 bind to kernel 1 '_Z7dinitcsjPjS_'
GPGPU-Sim uArch: Shader 27 bind to kernel 1 '_Z7dinitcsjPjS_'
GPGPU-Sim uArch: Shader 28 bind to kernel 1 '_Z7dinitcsjPjS_'
GPGPU-Sim uArch: Shader 20 bind to kernel 1 '_Z7dinitcsjPjS_'
GPGPU-Sim uArch: Shader 22 bind to kernel 1 '_Z7dinitcsjPjS_'
GPGPU-Sim uArch: Shader 2 bind to kernel 1 '_Z7dinitcsjPjS_'
GPGPU-Sim uArch: Shader 19 bind to kernel 1 '_Z7dinitcsjPjS_'
GPGPU-Sim uArch: Shader 5 bind to kernel 1 '_Z7dinitcsjPjS_'
GPGPU-Sim uArch: Shader 9 bind to kernel 1 '_Z7dinitcsjPjS_'
GPGPU-Sim uArch: Shader 0 bind to kernel 1 '_Z7dinitcsjPjS_'
GPGPU-Sim uArch: Shader 7 bind to kernel 1 '_Z7dinitcsjPjS_'
GPGPU-Sim uArch: Shader 12 bind to kernel 1 '_Z7dinitcsjPjS_'
GPGPU-Sim uArch: Shader 6 bind to kernel 1 '_Z7dinitcsjPjS_'
GPGPU-Sim uArch: Shader 11 bind to kernel 1 '_Z7dinitcsjPjS_'
GPGPU-Sim uArch: Shader 25 bind to kernel 1 '_Z7dinitcsjPjS_'
GPGPU-Sim uArch: Shader 26 bind to kernel 1 '_Z7dinitcsjPjS_'
GPGPU-Sim uArch: Shader 1 bind to kernel 1 '_Z7dinitcsjPjS_'
GPGPU-Sim uArch: Shader 14 bind to kernel 1 '_Z7dinitcsjPjS_'
GPGPU-Sim uArch: Shader 8 bind to kernel 1 '_Z7dinitcsjPjS_'
GPGPU-Sim uArch: Shader 17 bind to kernel 1 '_Z7dinitcsjPjS_'
GPGPU-Sim uArch: Shader 24 bind to kernel 1 '_Z7dinitcsjPjS_'
GPGPU-Sim uArch: Shader 29 bind to kernel 1 '_Z7dinitcsjPjS_'
GPGPU-Sim uArch: Shader 15 bind to kernel 1 '_Z7dinitcsjPjS_'
GPGPU-Sim uArch: Shader 23 bind to kernel 1 '_Z7dinitcsjPjS_'
GPGPU-Sim uArch: Shader 5 bind to kernel 1 '_Z7dinitcsjPjS_'
GPGPU-Sim uArch: Shader 28 bind to kernel 1 '_Z7dinitcsjPjS_'
GPGPU-Sim uArch: Shader 27 bind to kernel 1 '_Z7dinitcsjPjS_'
GPGPU-Sim uArch: Shader 13 bind to kernel 1 '_Z7dinitcsjPjS_'
GPGPU-Sim uArch: Shader 9 bind to kernel 1 '_Z7dinitcsjPjS_'
GPGPU-Sim uArch: Shader 21 bind to kernel 1 '_Z7dinitcsjPjS_'
GPGPU-Sim uArch: Shader 10 bind to kernel 1 '_Z7dinitcsjPjS_'
GPGPU-Sim uArch: Shader 20 bind to kernel 1 '_Z7dinitcsjPjS_'
GPGPU-Sim uArch: Shader 3 bind to kernel 1 '_Z7dinitcsjPjS_'
GPGPU-Sim uArch: Shader 18 bind to kernel 1 '_Z7dinitcsjPjS_'
GPGPU-Sim uArch: Shader 19 bind to kernel 1 '_Z7dinitcsjPjS_'
GPGPU-Sim uArch: Shader 4 bind to kernel 1 '_Z7dinitcsjPjS_'
GPGPU-Sim uArch: Shader 16 bind to kernel 1 '_Z7dinitcsjPjS_'
GPGPU-Sim uArch: Shader 22 bind to kernel 1 '_Z7dinitcsjPjS_'
GPGPU-Sim uArch: Shader 2 bind to kernel 1 '_Z7dinitcsjPjS_'
GPGPU-Sim uArch: Shader 0 bind to kernel 1 '_Z7dinitcsjPjS_'
GPGPU-Sim uArch: Shader 7 bind to kernel 1 '_Z7dinitcsjPjS_'
GPGPU-Sim uArch: Shader 12 bind to kernel 1 '_Z7dinitcsjPjS_'
GPGPU-Sim uArch: Shader 25 bind to kernel 1 '_Z7dinitcsjPjS_'
GPGPU-Sim uArch: Shader 26 bind to kernel 1 '_Z7dinitcsjPjS_'
GPGPU-Sim uArch: Shader 6 bind to kernel 1 '_Z7dinitcsjPjS_'
GPGPU-Sim uArch: Shader 11 bind to kernel 1 '_Z7dinitcsjPjS_'
GPGPU-Sim uArch: Shader 1 bind to kernel 1 '_Z7dinitcsjPjS_'
GPGPU-Sim uArch: Shader 8 bind to kernel 1 '_Z7dinitcsjPjS_'
GPGPU-Sim uArch: Shader 14 bind to kernel 1 '_Z7dinitcsjPjS_'
GPGPU-Sim uArch: Shader 17 bind to kernel 1 '_Z7dinitcsjPjS_'
GPGPU-Sim uArch: Shader 24 bind to kernel 1 '_Z7dinitcsjPjS_'
GPGPU-Sim uArch: Shader 29 bind to kernel 1 '_Z7dinitcsjPjS_'
GPGPU-Sim uArch: Shader 5 bind to kernel 1 '_Z7dinitcsjPjS_'
GPGPU-Sim uArch: Shader 15 bind to kernel 1 '_Z7dinitcsjPjS_'
GPGPU-Sim uArch: Shader 23 bind to kernel 1 '_Z7dinitcsjPjS_'
GPGPU-Sim uArch: Shader 28 bind to kernel 1 '_Z7dinitcsjPjS_'
GPGPU-Sim uArch: Shader 27 bind to kernel 1 '_Z7dinitcsjPjS_'
GPGPU-Sim uArch: Shader 9 bind to kernel 1 '_Z7dinitcsjPjS_'
GPGPU-Sim uArch: Shader 16 bind to kernel 1 '_Z7dinitcsjPjS_'
GPGPU-Sim uArch: Shader 20 bind to kernel 1 '_Z7dinitcsjPjS_'
GPGPU-Sim uArch: Shader 22 bind to kernel 1 '_Z7dinitcsjPjS_'
GPGPU-Sim uArch: Shader 4 bind to kernel 1 '_Z7dinitcsjPjS_'
GPGPU-Sim uArch: Shader 13 bind to kernel 1 '_Z7dinitcsjPjS_'
GPGPU-Sim uArch: Shader 21 bind to kernel 1 '_Z7dinitcsjPjS_'
GPGPU-Sim uArch: Shader 10 bind to kernel 1 '_Z7dinitcsjPjS_'
GPGPU-Sim uArch: Shader 18 bind to kernel 1 '_Z7dinitcsjPjS_'
GPGPU-Sim uArch: Shader 2 bind to kernel 1 '_Z7dinitcsjPjS_'
GPGPU-Sim uArch: Shader 3 bind to kernel 1 '_Z7dinitcsjPjS_'
GPGPU-Sim uArch: Shader 19 bind to kernel 1 '_Z7dinitcsjPjS_'
GPGPU-Sim uArch: Shader 0 bind to kernel 1 '_Z7dinitcsjPjS_'
GPGPU-Sim uArch: Shader 25 bind to kernel 1 '_Z7dinitcsjPjS_'
GPGPU-Sim uArch: Shader 11 bind to kernel 1 '_Z7dinitcsjPjS_'
GPGPU-Sim uArch: Shader 7 bind to kernel 1 '_Z7dinitcsjPjS_'
GPGPU-Sim uArch: Shader 26 bind to kernel 1 '_Z7dinitcsjPjS_'
GPGPU-Sim uArch: Shader 6 bind to kernel 1 '_Z7dinitcsjPjS_'
GPGPU-Sim uArch: Shader 12 bind to kernel 1 '_Z7dinitcsjPjS_'
GPGPU-Sim uArch: Shader 8 bind to kernel 1 '_Z7dinitcsjPjS_'
GPGPU-Sim uArch: Shader 14 bind to kernel 1 '_Z7dinitcsjPjS_'
GPGPU-Sim uArch: Shader 1 bind to kernel 1 '_Z7dinitcsjPjS_'
GPGPU-Sim uArch: Shader 17 bind to kernel 1 '_Z7dinitcsjPjS_'
GPGPU-Sim uArch: Shader 24 bind to kernel 1 '_Z7dinitcsjPjS_'
GPGPU-Sim uArch: Shader 29 bind to kernel 1 '_Z7dinitcsjPjS_'
GPGPU-Sim uArch: Shader 15 bind to kernel 1 '_Z7dinitcsjPjS_'
GPGPU-Sim uArch: Shader 5 bind to kernel 1 '_Z7dinitcsjPjS_'
GPGPU-Sim uArch: Shader 16 bind to kernel 1 '_Z7dinitcsjPjS_'
GPGPU-Sim uArch: Shader 9 bind to kernel 1 '_Z7dinitcsjPjS_'
GPGPU-Sim uArch: Shader 18 bind to kernel 1 '_Z7dinitcsjPjS_'
GPGPU-Sim uArch: Shader 20 bind to kernel 1 '_Z7dinitcsjPjS_'
GPGPU-Sim uArch: Shader 21 bind to kernel 1 '_Z7dinitcsjPjS_'
GPGPU-Sim uArch: Shader 22 bind to kernel 1 '_Z7dinitcsjPjS_'
GPGPU-Sim uArch: Shader 4 bind to kernel 1 '_Z7dinitcsjPjS_'
GPGPU-Sim uArch: Shader 13 bind to kernel 1 '_Z7dinitcsjPjS_'
GPGPU-Sim uArch: Shader 28 bind to kernel 1 '_Z7dinitcsjPjS_'
GPGPU-Sim uArch: Shader 23 bind to kernel 1 '_Z7dinitcsjPjS_'
GPGPU-Sim uArch: Shader 3 bind to kernel 1 '_Z7dinitcsjPjS_'
GPGPU-Sim uArch: Shader 10 bind to kernel 1 '_Z7dinitcsjPjS_'
GPGPU-Sim uArch: Shader 2 bind to kernel 1 '_Z7dinitcsjPjS_'
GPGPU-Sim uArch: Shader 27 bind to kernel 1 '_Z7dinitcsjPjS_'
GPGPU-Sim uArch: Shader 19 bind to kernel 1 '_Z7dinitcsjPjS_'
GPGPU-Sim uArch: Shader 0 bind to kernel 1 '_Z7dinitcsjPjS_'
GPGPU-Sim uArch: Shader 25 bind to kernel 1 '_Z7dinitcsjPjS_'
GPGPU-Sim uArch: Shader 7 bind to kernel 1 '_Z7dinitcsjPjS_'
GPGPU-Sim uArch: Shader 11 bind to kernel 1 '_Z7dinitcsjPjS_'
GPGPU-Sim uArch: Shader 26 bind to kernel 1 '_Z7dinitcsjPjS_'
GPGPU-Sim uArch: Shader 12 bind to kernel 1 '_Z7dinitcsjPjS_'
GPGPU-Sim uArch: Shader 6 bind to kernel 1 '_Z7dinitcsjPjS_'
GPGPU-Sim uArch: Shader 8 bind to kernel 1 '_Z7dinitcsjPjS_'
GPGPU-Sim uArch: Shader 29 bind to kernel 1 '_Z7dinitcsjPjS_'
GPGPU-Sim uArch: Shader 24 bind to kernel 1 '_Z7dinitcsjPjS_'
GPGPU-Sim uArch: Shader 1 bind to kernel 1 '_Z7dinitcsjPjS_'
GPGPU-Sim uArch: Shader 14 bind to kernel 1 '_Z7dinitcsjPjS_'
GPGPU-Sim uArch: Shader 17 bind to kernel 1 '_Z7dinitcsjPjS_'
GPGPU-Sim uArch: Shader 5 bind to kernel 1 '_Z7dinitcsjPjS_'
GPGPU-Sim uArch: Shader 16 bind to kernel 1 '_Z7dinitcsjPjS_'
GPGPU-Sim uArch: Shader 22 bind to kernel 1 '_Z7dinitcsjPjS_'
[...]

------------------------------------------------------------------------

Row_Buffer_Locality = 0.808596
Row_Buffer_Locality_read = 0.862500
Row_Buffer_Locality_write = 0.479352
Bank_Level_Parallism = 8.882404
Bank_Level_Parallism_Col = 7.454437
Bank_Level_Parallism_Ready = 2.937663
write_to_read_ratio_blp_rw_average = 0.548907
GrpLevelPara = 3.721139 

BW Util details:
bwutil = 0.882291 
total_CMD = 13664085 
util_bw = 12055696 
Wasted_Col = 1492988 
Wasted_Row = 9329 
Idle = 106072 

BW Util Bottlenecks: 
RCDc_limit = 1010588 
RCDWRc_limit = 321745 
WTRc_limit = 2596458 
RTWc_limit = 5364128 
CCDLc_limit = 1530886 
rwq = 0 
CCDLc_limit_alone = 846623 
WTRc_limit_alone = 2406050 
RTWc_limit_alone = 4870273 

Commands details: 
total_CMD = 13664085 
n_nop = 9859392 
Read = 1963584 
Write = 0 
L2_Alloc = 0 
L2_WB = 1050340 
n_act = 437370 
n_pre = 437354 
n_ref = 0 
n_req = 2285062 
total_req = 3013924 

Dual Bus Interface Util: 
issued_total_row = 874724 
issued_total_col = 3013924 
Row_Bus_Util =  0.064016 
CoL_Bus_Util = 0.220573 
Either_Row_CoL_Bus_Util = 0.278445 
Issued_on_Two_Bus_Simul_Util = 0.006144 
issued_two_Eff = 0.022066 
queue_avg = 60.794838 


dram_util_bins: 0 0 0 0 0 0 0 0 0 0
dram_eff_bins: 0 0 0 0 0 0 0 0 0 0
mrqq: max=64 avg=60.7948
Memory Partition 11: 
Cache L2_bank_022:
MSHR contents

Cache L2_bank_023:
MSHR contents

In Dram Latency Queue (total = 0): 
DRAM[11]: 16 bks, busW=2 BL=16 CL=24, tRRD=12 tCCD=4, tRCD=24 tRAS=55 tRP=24 tRC=78
n_cmd=13664085 n_nop=9861186 n_act=436659 n_pre=436643 n_ref_event=0 n_req=2284457 n_rd=1963257 n_rd_L2_A=0 n_write=0 n_wr_bk=1049997 bw_util=0.8821
n_activity=13560589 dram_eff=0.8888
bk0: 123283a 6243883i bk1: 122653a 6254978i bk2: 122943a 6294064i bk3: 123179a 6126164i bk4: 122633a 6367980i bk5: 122826a 6150484i bk6: 122822a 6295162i bk7: 122677a 6203638i bk8: 122525a 6459926i bk9: 122799a 6234091i bk10: 122301a 6456009i bk11: 122074a 6396372i bk12: 122082a 6481908i bk13: 122369a 6274495i bk14: 123091a 6212383i bk15: 123000a 6091136i 

------------------------------------------------------------------------

Row_Buffer_Locality = 0.808857
Row_Buffer_Locality_read = 0.862540
Row_Buffer_Locality_write = 0.480729
Bank_Level_Parallism = 8.874859
Bank_Level_Parallism_Col = 7.452236
Bank_Level_Parallism_Ready = 2.936053
write_to_read_ratio_blp_rw_average = 0.549282
GrpLevelPara = 3.722005 

BW Util details:
bwutil = 0.882095 
total_CMD = 13664085 
util_bw = 12053016 
Wasted_Col = 1495698 
Wasted_Row = 8561 
Idle = 106810 

BW Util Bottlenecks: 
RCDc_limit = 1009637 
RCDWRc_limit = 318008 
WTRc_limit = 2586474 
RTWc_limit = 5380360 
CCDLc_limit = 1537067 
rwq = 0 
CCDLc_limit_alone = 852060 
WTRc_limit_alone = 2398742 
RTWc_limit_alone = 4883085 

Commands details: 
total_CMD = 13664085 
n_nop = 9861186 
Read = 1963257 
Write = 0 
L2_Alloc = 0 
L2_WB = 1049997 
n_act = 436659 
n_pre = 436643 
n_ref = 0 
n_req = 2284457 
total_req = 3013254 

Dual Bus Interface Util: 
issued_total_row = 873302 
issued_total_col = 3013254 
Row_Bus_Util =  0.063912 
CoL_Bus_Util = 0.220524 
Either_Row_CoL_Bus_Util = 0.278313 
Issued_on_Two_Bus_Simul_Util = 0.006122 
issued_two_Eff = 0.021998 
queue_avg = 60.549622 


dram_util_bins: 0 0 0 0 0 0 0 0 0 0
dram_eff_bins: 0 0 0 0 0 0 0 0 0 0
mrqq: max=64 avg=60.5496

========= L2 cache stats =========
L2_cache_bank[0]: Access = 1948776, Miss = 1277187, Miss_rate = 0.655, Pending_hits = 26582, Reservation_fails = 5177
L2_cache_bank[1]: Access = 1922496, Miss = 1276961, Miss_rate = 0.664, Pending_hits = 11374, Reservation_fails = 3893
L2_cache_bank[2]: Access = 1921428, Miss = 1276443, Miss_rate = 0.664, Pending_hits = 11083, Reservation_fails = 2210
L2_cache_bank[3]: Access = 1926103, Miss = 1277751, Miss_rate = 0.663, Pending_hits = 11692, Reservation_fails = 1728
L2_cache_bank[4]: Access = 1921793, Miss = 1276853, Miss_rate = 0.664, Pending_hits = 11174, Reservation_fails = 3763
L2_cache_bank[5]: Access = 1922099, Miss = 1277402, Miss_rate = 0.665, Pending_hits = 11267, Reservation_fails = 5228
L2_cache_bank[6]: Access = 1922784, Miss = 1277596, Miss_rate = 0.664, Pending_hits = 11758, Reservation_fails = 9297
L2_cache_bank[7]: Access = 1924321, Miss = 1277377, Miss_rate = 0.664, Pending_hits = 12258, Reservation_fails = 8897
L2_cache_bank[8]: Access = 1947083, Miss = 1276856, Miss_rate = 0.656, Pending_hits = 26462, Reservation_fails = 5642
L2_cache_bank[9]: Access = 1928648, Miss = 1278303, Miss_rate = 0.663, Pending_hits = 12065, Reservation_fails = 8755
L2_cache_bank[10]: Access = 1924756, Miss = 1277366, Miss_rate = 0.664, Pending_hits = 11556, Reservation_fails = 6257
L2_cache_bank[11]: Access = 1923736, Miss = 1277240, Miss_rate = 0.664, Pending_hits = 11671, Reservation_fails = 6855
L2_cache_bank[12]: Access = 1920780, Miss = 1276032, Miss_rate = 0.664, Pending_hits = 11317, Reservation_fails = 8034
L2_cache_bank[13]: Access = 1927287, Miss = 1278689, Miss_rate = 0.663, Pending_hits = 12036, Reservation_fails = 2872
L2_cache_bank[14]: Access = 1927439, Miss = 1278312, Miss_rate = 0.663, Pending_hits = 11596, Reservation_fails = 824
L2_cache_bank[15]: Access = 1924485, Miss = 1277849, Miss_rate = 0.664, Pending_hits = 11517, Reservation_fails = 5302
L2_cache_bank[16]: Access = 1953666, Miss = 1278545, Miss_rate = 0.654, Pending_hits = 27501, Reservation_fails = 4505
L2_cache_bank[17]: Access = 1925544, Miss = 1277473, Miss_rate = 0.663, Pending_hits = 12014, Reservation_fails = 10797
L2_cache_bank[18]: Access = 1926222, Miss = 1277740, Miss_rate = 0.663, Pending_hits = 11644, Reservation_fails = 3454
L2_cache_bank[19]: Access = 1927025, Miss = 1277692, Miss_rate = 0.663, Pending_hits = 11671, Reservation_fails = 1796
L2_cache_bank[20]: Access = 1926601, Miss = 1277759, Miss_rate = 0.663, Pending_hits = 11340, Reservation_fails = 3967
L2_cache_bank[21]: Access = 1924887, Miss = 1277869, Miss_rate = 0.664, Pending_hits = 11939, Reservation_fails = 2771
L2_cache_bank[22]: Access = 1925266, Miss = 1277700, Miss_rate = 0.664, Pending_hits = 11559, Reservation_fails = 4732
L2_cache_bank[23]: Access = 1925270, Miss = 1277589, Miss_rate = 0.664, Pending_hits = 11592, Reservation_fails = 2733
L2_total_cache_accesses = 46268495
L2_total_cache_misses = 30660584
L2_total_cache_miss_rate = 0.6627
L2_total_cache_pending_hits = 324668
L2_total_cache_reservation_fails = 119489
L2_total_cache_breakdown:
	L2_cache_stats_breakdown[GLOBAL_ACC_R][HIT] = 6954829
	L2_cache_stats_breakdown[GLOBAL_ACC_R][HIT_RESERVED] = 324668
	L2_cache_stats_breakdown[GLOBAL_ACC_R][MISS] = 6599376
	L2_cache_stats_breakdown[GLOBAL_ACC_R][RESERVATION_FAIL] = 119489
	L2_cache_stats_breakdown[GLOBAL_ACC_R][SECTOR_MISS] = 16956806
	L2_cache_stats_breakdown[GLOBAL_ACC_R][MSHR_HIT] = 324668
	L2_cache_stats_breakdown[LOCAL_ACC_R][HIT] = 0
	L2_cache_stats_breakdown[LOCAL_ACC_R][HIT_RESERVED] = 0
	L2_cache_stats_breakdown[LOCAL_ACC_R][MISS] = 0
	L2_cache_stats_breakdown[LOCAL_ACC_R][RESERVATION_FAIL] = 0
	L2_cache_stats_breakdown[LOCAL_ACC_R][SECTOR_MISS] = 0
	L2_cache_stats_breakdown[LOCAL_ACC_R][MSHR_HIT] = 0
	L2_cache_stats_breakdown[CONST_ACC_R][HIT] = 0
	L2_cache_stats_breakdown[CONST_ACC_R][HIT_RESERVED] = 0
	L2_cache_stats_breakdown[CONST_ACC_R][MISS] = 0
	L2_cache_stats_breakdown[CONST_ACC_R][RESERVATION_FAIL] = 0
	L2_cache_stats_breakdown[CONST_ACC_R][SECTOR_MISS] = 0
	L2_cache_stats_breakdown[CONST_ACC_R][MSHR_HIT] = 0
	L2_cache_stats_breakdown[TEXTURE_ACC_R][HIT] = 0
	L2_cache_stats_breakdown[TEXTURE_ACC_R][HIT_RESERVED] = 0
	L2_cache_stats_breakdown[TEXTURE_ACC_R][MISS] = 0
	L2_cache_stats_breakdown[TEXTURE_ACC_R][RESERVATION_FAIL] = 0
	L2_cache_stats_breakdown[TEXTURE_ACC_R][SECTOR_MISS] = 0
	L2_cache_stats_breakdown[TEXTURE_ACC_R][MSHR_HIT] = 0
	L2_cache_stats_breakdown[GLOBAL_ACC_W][HIT] = 8328414
	L2_cache_stats_breakdown[GLOBAL_ACC_W][HIT_RESERVED] = 0
	L2_cache_stats_breakdown[GLOBAL_ACC_W][MISS] = 1776102
	L2_cache_stats_breakdown[GLOBAL_ACC_W][RESERVATION_FAIL] = 0
	L2_cache_stats_breakdown[GLOBAL_ACC_W][SECTOR_MISS] = 5328300
	L2_cache_stats_breakdown[GLOBAL_ACC_W][MSHR_HIT] = 0
	L2_cache_stats_breakdown[LOCAL_ACC_W][HIT] = 0
	L2_cache_stats_breakdown[LOCAL_ACC_W][HIT_RESERVED] = 0
	L2_cache_stats_breakdown[LOCAL_ACC_W][MISS] = 0
	L2_cache_stats_breakdown[LOCAL_ACC_W][RESERVATION_FAIL] = 0
	L2_cache_stats_breakdown[LOCAL_ACC_W][SECTOR_MISS] = 0
	L2_cache_stats_breakdown[LOCAL_ACC_W][MSHR_HIT] = 0
	L2_cache_stats_breakdown[L1_WRBK_ACC][HIT] = 0
	L2_cache_stats_breakdown[L1_WRBK_ACC][HIT_RESERVED] = 0
	L2_cache_stats_breakdown[L1_WRBK_ACC][MISS] = 0
	L2_cache_stats_breakdown[L1_WRBK_ACC][RESERVATION_FAIL] = 0
	L2_cache_stats_breakdown[L1_WRBK_ACC][SECTOR_MISS] = 0
	L2_cache_stats_breakdown[L1_WRBK_ACC][MSHR_HIT] = 0
	L2_cache_stats_breakdown[L2_WRBK_ACC][HIT] = 0
	L2_cache_stats_breakdown[L2_WRBK_ACC][HIT_RESERVED] = 0
	L2_cache_stats_breakdown[L2_WRBK_ACC][MISS] = 0
	L2_cache_stats_breakdown[L2_WRBK_ACC][RESERVATION_FAIL] = 0
	L2_cache_stats_breakdown[L2_WRBK_ACC][SECTOR_MISS] = 0
	L2_cache_stats_breakdown[L2_WRBK_ACC][MSHR_HIT] = 0
	L2_cache_stats_breakdown[INST_ACC_R][HIT] = 0
	L2_cache_stats_breakdown[INST_ACC_R][HIT_RESERVED] = 0
	L2_cache_stats_breakdown[INST_ACC_R][MISS] = 0
	L2_cache_stats_breakdown[INST_ACC_R][RESERVATION_FAIL] = 0
	L2_cache_stats_breakdown[INST_ACC_R][SECTOR_MISS] = 0
	L2_cache_stats_breakdown[INST_ACC_R][MSHR_HIT] = 0
	L2_cache_stats_breakdown[L1_WR_ALLOC_R][HIT] = 0
	L2_cache_stats_breakdown[L1_WR_ALLOC_R][HIT_RESERVED] = 0
	L2_cache_stats_breakdown[L1_WR_ALLOC_R][MISS] = 0
	L2_cache_stats_breakdown[L1_WR_ALLOC_R][RESERVATION_FAIL] = 0
	L2_cache_stats_breakdown[L1_WR_ALLOC_R][SECTOR_MISS] = 0
	L2_cache_stats_breakdown[L1_WR_ALLOC_R][MSHR_HIT] = 0
	L2_cache_stats_breakdown[L2_WR_ALLOC_R][HIT] = 0
	L2_cache_stats_breakdown[L2_WR_ALLOC_R][HIT_RESERVED] = 0
	L2_cache_stats_breakdown[L2_WR_ALLOC_R][MISS] = 0
	L2_cache_stats_breakdown[L2_WR_ALLOC_R][RESERVATION_FAIL] = 0
	L2_cache_stats_breakdown[L2_WR_ALLOC_R][SECTOR_MISS] = 0
	L2_cache_stats_breakdown[L2_WR_ALLOC_R][MSHR_HIT] = 0
	L2_cache_stats_breakdown[GLOBAL_ACC_R][TOTAL_ACCESS] = 30835679
	L2_cache_stats_breakdown[GLOBAL_ACC_W][TOTAL_ACCESS] = 15432816
L2_total_cache_reservation_fail_breakdown:
	L2_cache_stats_fail_breakdown[GLOBAL_ACC_R][MSHR_ENRTY_FAIL] = 107
	L2_cache_stats_fail_breakdown[GLOBAL_ACC_R][MSHR_MERGE_ENRTY_FAIL] = 119382
L2_cache_data_port_util = 0.165
L2_cache_fill_port_util = 0.184

icnt_total_pkts_mem_to_simt=46268495
icnt_total_pkts_simt_to_mem=46268495
LD_mem_lat_dist  0 0 0 0 0 0 0 0 0 0 0 0 0 0 0 0 0 0 0 0 0 0 0 0 0 0 0
ST_mem_lat_dist  0 0 0 0 0 0 0 0 0 0 0 0 0 0 0 0 0 0 0 0 0 0 0 0 0 0 0
----------------------------Interconnect-DETAILS--------------------------------
Req_Network_injected_packets_num = 46268495
Req_Network_cycles = 5328236
Req_Network_injected_packets_per_cycle =       8.6836 
Req_Network_conflicts_per_cycle =       3.7022
Req_Network_conflicts_per_cycle_util =       3.7443
Req_Bank_Level_Parallism =       8.7823
Req_Network_in_buffer_full_per_cycle =       0.0000
Req_Network_in_buffer_avg_util =       1.8685
Req_Network_out_buffer_full_per_cycle =       0.0005
Req_Network_out_buffer_avg_util =      31.5165

Reply_Network_injected_packets_num = 46268495
Reply_Network_cycles = 5328236
Reply_Network_injected_packets_per_cycle =        8.6836
Reply_Network_conflicts_per_cycle =        3.7706
Reply_Network_conflicts_per_cycle_util =       3.7925
Reply_Bank_Level_Parallism =       8.7340
Reply_Network_in_buffer_full_per_cycle =       0.0000
Reply_Network_in_buffer_avg_util =       1.0833
Reply_Network_out_buffer_full_per_cycle =       0.0000
Reply_Network_out_buffer_avg_util =       0.2895
----------------------------END-of-Interconnect-DETAILS-------------------------


gpgpu_simulation_time = 0 days, 13 hrs, 28 min, 20 sec (48500 sec)
gpgpu_simulation_rate = 40289 (inst/sec)
gpgpu_simulation_rate = 109 (cycle/sec)
gpgpu_silicon_slowdown = 12522935x
GPGPU-Sim PTX: Setting up arguments for 4 bytes starting at 0x7ffed451ff1c..
GPGPU-Sim PTX: Setting up arguments for 8 bytes starting at 0x7ffed451ff10..
GPGPU-Sim PTX: Setting up arguments for 32 bytes starting at 0x7ffed4520020..
GPGPU-Sim PTX: Setting up arguments for 8 bytes starting at 0x7ffed451ff00..
GPGPU-Sim PTX: Setting up arguments for 8 bytes starting at 0x7ffed451fef8..
GPGPU-Sim PTX: Setting up arguments for 8 bytes starting at 0x7ffed451fef0..
GPGPU-Sim PTX: Setting up arguments for 8 bytes starting at 0x7ffed451fee8..
GPGPU-Sim PTX: Setting up arguments for 8 bytes starting at 0x7ffed4520040..
GPGPU-Sim PTX: Setting up arguments for 8 bytes starting at 0x7ffed451fed8..
GPGPU-Sim PTX: Setting up arguments for 8 bytes starting at 0x7ffed451fed0..

GPGPU-Sim PTX: cudaLaunch for 0x0x55c9f16cb35a (mode=performance simulation) on stream 0
GPGPU-Sim PTX: finding reconvergence points for '_Z15dfindcompmintwoiPj14ComponentSpaceS_S_S_Pb13GlobalBarrierS1_S_'...
GPGPU-Sim PTX: Finding dominators for '_Z15dfindcompmintwoiPj14ComponentSpaceS_S_S_Pb13GlobalBarrierS1_S_'...
GPGPU-Sim PTX: Finding immediate dominators for '_Z15dfindcompmintwoiPj14ComponentSpaceS_S_S_Pb13GlobalBarrierS1_S_'...
GPGPU-Sim PTX: Finding postdominators for '_Z15dfindcompmintwoiPj14ComponentSpaceS_S_S_Pb13GlobalBarrierS1_S_'...
GPGPU-Sim PTX: Finding immediate postdominators for '_Z15dfindcompmintwoiPj14ComponentSpaceS_S_S_Pb13GlobalBarrierS1_S_'...
GPGPU-Sim PTX: pre-decoding instructions for '_Z15dfindcompmintwoiPj14ComponentSpaceS_S_S_Pb13GlobalBarrierS1_S_'...
GPGPU-Sim PTX: reconvergence points for _Z15dfindcompmintwoiPj14ComponentSpaceS_S_S_Pb13GlobalBarrierS1_S_...
GPGPU-Sim PTX:  1 (potential) branch divergence @  PC=0xd70 (mst_topo.1.sm_75.ptx:749) @%p3 bra $L__BB6_26;

GPGPU-Sim PTX:    immediate post dominator      @  PC=0x1160 (mst_topo.1.sm_75.ptx:915) ret;

GPGPU-Sim PTX:  2 (potential) branch divergence @  PC=0xe10 (mst_topo.1.sm_75.ptx:772) @%p4 bra $L__BB6_11;

GPGPU-Sim PTX:    immediate post dominator      @  PC=0xf48 (mst_topo.1.sm_75.ptx:824) membar.gl;

GPGPU-Sim PTX:  3 (potential) branch divergence @  PC=0xe28 (mst_topo.1.sm_75.ptx:776) @%p5 bra $L__BB6_11;

GPGPU-Sim PTX:    immediate post dominator      @  PC=0xf48 (mst_topo.1.sm_75.ptx:824) membar.gl;

GPGPU-Sim PTX:  4 (potential) branch divergence @  PC=0xe58 (mst_topo.1.sm_75.ptx:783) @%p6 bra $L__BB6_7;

GPGPU-Sim PTX:    immediate post dominator      @  PC=0xeb0 (mst_topo.1.sm_75.ptx:799) st.global.u32 [%rd13], %r56;

GPGPU-Sim PTX:  5 (potential) branch divergence @  PC=0xea8 (mst_topo.1.sm_75.ptx:796) @%p7 bra $L__BB6_6;

GPGPU-Sim PTX:    immediate post dominator      @  PC=0xeb0 (mst_topo.1.sm_75.ptx:799) st.global.u32 [%rd13], %r56;

GPGPU-Sim PTX:  6 (potential) branch divergence @  PC=0xef0 (mst_topo.1.sm_75.ptx:807) @%p8 bra $L__BB6_10;

GPGPU-Sim PTX:    immediate post dominator      @  PC=0xf40 (mst_topo.1.sm_75.ptx:821) st.global.u32 [%rd17], %r57;

GPGPU-Sim PTX:  7 (potential) branch divergence @  PC=0xf38 (mst_topo.1.sm_75.ptx:818) @%p9 bra $L__BB6_9;

GPGPU-Sim PTX:    immediate post dominator      @  PC=0xf40 (mst_topo.1.sm_75.ptx:821) st.global.u32 [%rd17], %r57;

GPGPU-Sim PTX:  8 (potential) branch divergence @  PC=0xf58 (mst_topo.1.sm_75.ptx:826) @%p10 bra $L__BB6_14;

GPGPU-Sim PTX:    immediate post dominator      @  PC=0xf90 (mst_topo.1.sm_75.ptx:838) bar.sync 0;

GPGPU-Sim PTX:  9 (potential) branch divergence @  PC=0xf88 (mst_topo.1.sm_75.ptx:835) @%p11 bra $L__BB6_13;

GPGPU-Sim PTX:    immediate post dominator      @  PC=0xf90 (mst_topo.1.sm_75.ptx:838) bar.sync 0;

GPGPU-Sim PTX: 10 (potential) branch divergence @  PC=0xfa0 (mst_topo.1.sm_75.ptx:840) @%p4 bra $L__BB6_16;

GPGPU-Sim PTX:    immediate post dominator      @  PC=0xfb8 (mst_topo.1.sm_75.ptx:846) setp.eq.s32 %p14, %r56, %r57;

GPGPU-Sim PTX: 11 (potential) branch divergence @  PC=0xfd0 (mst_topo.1.sm_75.ptx:849) @%p16 bra $L__BB6_22;

GPGPU-Sim PTX:    immediate post dominator      @  PC=0x10f8 (mst_topo.1.sm_75.ptx:895) membar.gl;

GPGPU-Sim PTX: 12 (potential) branch divergence @  PC=0xff8 (mst_topo.1.sm_75.ptx:855) @%p17 bra $L__BB6_20;

GPGPU-Sim PTX:    immediate post dominator      @  PC=0x10f8 (mst_topo.1.sm_75.ptx:895) membar.gl;

GPGPU-Sim PTX: 13 (potential) branch divergence @  PC=0x1020 (mst_topo.1.sm_75.ptx:861) @%p18 bra $L__BB6_20;

GPGPU-Sim PTX:    immediate post dominator      @  PC=0x10f8 (mst_topo.1.sm_75.ptx:895) membar.gl;

GPGPU-Sim PTX: 14 (potential) branch divergence @  PC=0x1060 (mst_topo.1.sm_75.ptx:870) @%p19 bra $L__BB6_21;

GPGPU-Sim PTX:    immediate post dominator      @  PC=0x10f8 (mst_topo.1.sm_75.ptx:895) membar.gl;

GPGPU-Sim PTX: 15 (potential) branch divergence @  PC=0x1068 (mst_topo.1.sm_75.ptx:871) bra.uni $L__BB6_20;

GPGPU-Sim PTX:    immediate post dominator      @  PC=0x10f0 (mst_topo.1.sm_75.ptx:892) st.global.u8 [%rd9], %rs3;

GPGPU-Sim PTX: 16 (potential) branch divergence @  PC=0x10e8 (mst_topo.1.sm_75.ptx:889) bra.uni $L__BB6_22;

GPGPU-Sim PTX:    immediate post dominator      @  PC=0x10f8 (mst_topo.1.sm_75.ptx:895) membar.gl;

GPGPU-Sim PTX: 17 (potential) branch divergence @  PC=0x1108 (mst_topo.1.sm_75.ptx:897) @%p10 bra $L__BB6_25;

GPGPU-Sim PTX:    immediate post dominator      @  PC=0x1140 (mst_topo.1.sm_75.ptx:909) bar.sync 0;

GPGPU-Sim PTX: 18 (potential) branch divergence @  PC=0x1138 (mst_topo.1.sm_75.ptx:906) @%p21 bra $L__BB6_24;

GPGPU-Sim PTX:    immediate post dominator      @  PC=0x1140 (mst_topo.1.sm_75.ptx:909) bar.sync 0;

GPGPU-Sim PTX: 19 (potential) branch divergence @  PC=0x1158 (mst_topo.1.sm_75.ptx:912) @%p22 bra $L__BB6_2;

GPGPU-Sim PTX:    immediate post dominator      @  PC=0x1160 (mst_topo.1.sm_75.ptx:915) ret;

GPGPU-Sim PTX: ... end of reconvergence points for _Z15dfindcompmintwoiPj14ComponentSpaceS_S_S_Pb13GlobalBarrierS1_S_
GPGPU-Sim PTX: ... done pre-decoding instructions for '_Z15dfindcompmintwoiPj14ComponentSpaceS_S_S_Pb13GlobalBarrierS1_S_'.
GPGPU-Sim PTX: pushing kernel '_Z15dfindcompmintwoiPj14ComponentSpaceS_S_S_Pb13GlobalBarrierS1_S_' to stream 0, gridDim= (13,1,1) blockDim = (256,1,1) 
GPGPU-Sim uArch: Shader 14 bind to kernel 6 '_Z15dfindcompmintwoiPj14ComponentSpaceS_S_S_Pb13GlobalBarrierS1_S_'
GPGPU-Sim uArch: CTA/core = 4, limited by: threads
GPGPU-Sim: Reconfigure L1 cache to 64KB
GPGPU-Sim uArch: Shader 15 bind to kernel 6 '_Z15dfindcompmintwoiPj14ComponentSpaceS_S_S_Pb13GlobalBarrierS1_S_'
GPGPU-Sim uArch: Shader 16 bind to kernel 6 '_Z15dfindcompmintwoiPj14ComponentSpaceS_S_S_Pb13GlobalBarrierS1_S_'
GPGPU-Sim uArch: Shader 17 bind to kernel 6 '_Z15dfindcompmintwoiPj14ComponentSpaceS_S_S_Pb13GlobalBarrierS1_S_'
GPGPU-Sim uArch: Shader 18 bind to kernel 6 '_Z15dfindcompmintwoiPj14ComponentSpaceS_S_S_Pb13GlobalBarrierS1_S_'
GPGPU-Sim uArch: Shader 19 bind to kernel 6 '_Z15dfindcompmintwoiPj14ComponentSpaceS_S_S_Pb13GlobalBarrierS1_S_'
GPGPU-Sim uArch: Shader 20 bind to kernel 6 '_Z15dfindcompmintwoiPj14ComponentSpaceS_S_S_Pb13GlobalBarrierS1_S_'
GPGPU-Sim uArch: Shader 21 bind to kernel 6 '_Z15dfindcompmintwoiPj14ComponentSpaceS_S_S_Pb13GlobalBarrierS1_S_'
GPGPU-Sim uArch: Shader 22 bind to kernel 6 '_Z15dfindcompmintwoiPj14ComponentSpaceS_S_S_Pb13GlobalBarrierS1_S_'
GPGPU-Sim uArch: Shader 23 bind to kernel 6 '_Z15dfindcompmintwoiPj14ComponentSpaceS_S_S_Pb13GlobalBarrierS1_S_'
GPGPU-Sim uArch: Shader 24 bind to kernel 6 '_Z15dfindcompmintwoiPj14ComponentSpaceS_S_S_Pb13GlobalBarrierS1_S_'
GPGPU-Sim uArch: Shader 25 bind to kernel 6 '_Z15dfindcompmintwoiPj14ComponentSpaceS_S_S_Pb13GlobalBarrierS1_S_'
GPGPU-Sim uArch: Shader 26 bind to kernel 6 '_Z15dfindcompmintwoiPj14ComponentSpaceS_S_S_Pb13GlobalBarrierS1_S_'
