

        *** GPGPU-Sim Simulator Version 4.2.0  [build gpgpu-sim_git-commit-5e9d31b8132651796656877ecb58fde27177ba7a_modified_315.0] ***


GPGPU-Sim PTX: simulation mode 0 (can change with PTX_SIM_MODE_FUNC environment variable:
               1=functional simulation only, 0=detailed performance simulator)
GPGPU-Sim PTX: overriding embedded ptx with ptx file (PTX_SIM_USE_PTX_FILE is set)
GPGPU-Sim: Configuration options:

-save_embedded_ptx                      0 # saves ptx files embedded in binary as <n>.ptx
-keep                                   0 # keep intermediate files created by GPGPU-Sim when interfacing with external programs
-gpgpu_ptx_save_converted_ptxplus                    0 # Saved converted ptxplus to a file
-gpgpu_occupancy_sm_number                   75 # The SM number to pass to ptxas when getting register usage for computing GPU occupancy. This parameter is required in the config.
-ptx_opcode_latency_int           4,4,4,4,21 # Opcode latencies for integers <ADD,MAX,MUL,MAD,DIV,SHFL>Default 1,1,19,25,145,32
-ptx_opcode_latency_fp           4,4,4,4,39 # Opcode latencies for single precision floating points <ADD,MAX,MUL,MAD,DIV>Default 1,1,1,1,30
-ptx_opcode_latency_dp      64,64,64,64,330 # Opcode latencies for double precision floating points <ADD,MAX,MUL,MAD,DIV>Default 8,8,8,8,335
-ptx_opcode_latency_sfu                   21 # Opcode latencies for SFU instructionsDefault 8
-ptx_opcode_latency_tesnor                   64 # Opcode latencies for Tensor instructionsDefault 64
-ptx_opcode_initiation_int            2,2,2,2,2 # Opcode initiation intervals for integers <ADD,MAX,MUL,MAD,DIV,SHFL>Default 1,1,4,4,32,4
-ptx_opcode_initiation_fp            2,2,2,2,4 # Opcode initiation intervals for single precision floating points <ADD,MAX,MUL,MAD,DIV>Default 1,1,1,1,5
-ptx_opcode_initiation_dp      64,64,64,64,130 # Opcode initiation intervals for double precision floating points <ADD,MAX,MUL,MAD,DIV>Default 8,8,8,8,130
-ptx_opcode_initiation_sfu                    8 # Opcode initiation intervals for sfu instructionsDefault 8
-ptx_opcode_initiation_tensor                   64 # Opcode initiation intervals for tensor instructionsDefault 64
-cdp_latency         7200,8000,100,12000,1600 # CDP API latency <cudaStreamCreateWithFlags, cudaGetParameterBufferV2_init_perWarp, cudaGetParameterBufferV2_perKernel, cudaLaunchDeviceV2_init_perWarp, cudaLaunchDevicV2_perKernel>Default 7200,8000,100,12000,1600
-network_mode                           2 # Interconnection network mode
-inter_config_file                   mesh # Interconnection network config file
-icnt_in_buffer_limit                  512 # in_buffer_limit
-icnt_out_buffer_limit                  512 # out_buffer_limit
-icnt_subnets                           2 # subnets
-icnt_arbiter_algo                      1 # arbiter_algo
-icnt_verbose                           0 # inct_verbose
-icnt_grant_cycles                      1 # grant_cycles
-gpgpu_ptx_use_cuobjdump                    1 # Use cuobjdump to extract ptx and sass from binaries
-gpgpu_experimental_lib_support                    0 # Try to extract code from cuda libraries [Broken because of unknown cudaGetExportTable]
-checkpoint_option                      0 #  checkpointing flag (0 = no checkpoint)
-checkpoint_kernel                      1 #  checkpointing during execution of which kernel (1- 1st kernel)
-checkpoint_CTA                         0 #  checkpointing after # of CTA (< less than total CTA)
-resume_option                          0 #  resume flag (0 = no resume)
-resume_kernel                          0 #  Resume from which kernel (1= 1st kernel)
-resume_CTA                             0 #  resume from which CTA 
-checkpoint_CTA_t                       0 #  resume from which CTA 
-checkpoint_insn_Y                      0 #  resume from which CTA 
-gpgpu_ptx_convert_to_ptxplus                    0 # Convert SASS (native ISA) to ptxplus and run ptxplus
-gpgpu_ptx_force_max_capability                   75 # Force maximum compute capability
-gpgpu_ptx_inst_debug_to_file                    0 # Dump executed instructions' debug information to file
-gpgpu_ptx_inst_debug_file       inst_debug.txt # Executed instructions' debug output file
-gpgpu_ptx_inst_debug_thread_uid                    1 # Thread UID for executed instructions' debug output
-gpgpu_simd_model                       1 # 1 = post-dominator
-gpgpu_shader_core_pipeline              1024:32 # shader core pipeline config, i.e., {<nthread>:<warpsize>}
-gpgpu_tex_cache:l1  N:4:128:256,L:R:m:N:L,T:512:8,128:2 # per-shader L1 texture cache  (READ-ONLY) config  {<nsets>:<bsize>:<assoc>,<rep>:<wr>:<alloc>:<wr_alloc>,<mshr>:<N>:<merge>,<mq>:<rf>}
-gpgpu_const_cache:l1 N:128:64:8,L:R:f:N:L,S:2:64,4 # per-shader L1 constant memory cache  (READ-ONLY) config  {<nsets>:<bsize>:<assoc>,<rep>:<wr>:<alloc>:<wr_alloc>,<mshr>:<N>:<merge>,<mq>} 
-gpgpu_cache:il1     N:64:128:16,L:R:f:N:L,S:2:48,4 # shader L1 instruction cache config  {<nsets>:<bsize>:<assoc>,<rep>:<wr>:<alloc>:<wr_alloc>,<mshr>:<N>:<merge>,<mq>} 
-gpgpu_cache:dl1     S:4:128:64,L:T:m:L:L,A:256:32,16:0,32 # per-shader L1 data cache config  {<nsets>:<bsize>:<assoc>,<rep>:<wr>:<alloc>:<wr_alloc>,<mshr>:<N>:<merge>,<mq> | none}
-gpgpu_l1_cache_write_ratio                   25 # L1D write ratio
-gpgpu_l1_banks                         4 # The number of L1 cache banks
-gpgpu_l1_banks_byte_interleaving                   32 # l1 banks byte interleaving granularity
-gpgpu_l1_banks_hashing_function                    0 # l1 banks hashing function
-gpgpu_l1_latency                      32 # L1 Hit Latency
-gpgpu_smem_latency                    30 # smem Latency
-gpgpu_cache:dl1PrefL1                 none # per-shader L1 data cache config  {<nsets>:<bsize>:<assoc>,<rep>:<wr>:<alloc>:<wr_alloc>,<mshr>:<N>:<merge>,<mq> | none}
-gpgpu_cache:dl1PrefShared                 none # per-shader L1 data cache config  {<nsets>:<bsize>:<assoc>,<rep>:<wr>:<alloc>:<wr_alloc>,<mshr>:<N>:<merge>,<mq> | none}
-gpgpu_gmem_skip_L1D                    0 # global memory access skip L1D cache (implements -Xptxas -dlcm=cg, default=no skip)
-gpgpu_perfect_mem                      0 # enable perfect memory mode (no cache miss)
-n_regfile_gating_group                    4 # group of lanes that should be read/written together)
-gpgpu_clock_gated_reg_file                    0 # enable clock gated reg file for power calculations
-gpgpu_clock_gated_lanes                    0 # enable clock gated lanes for power calculations
-gpgpu_shader_registers                65536 # Number of registers per shader core. Limits number of concurrent CTAs. (default 8192)
-gpgpu_registers_per_block                65536 # Maximum number of registers per CTA. (default 8192)
-gpgpu_ignore_resources_limitation                    0 # gpgpu_ignore_resources_limitation (default 0)
-gpgpu_shader_cta                      16 # Maximum number of concurrent CTAs in shader (default 32)
-gpgpu_num_cta_barriers                   16 # Maximum number of named barriers per CTA (default 16)
-gpgpu_n_clusters                      30 # number of processing clusters
-gpgpu_n_cores_per_cluster                    1 # number of simd cores per cluster
-gpgpu_n_cluster_ejection_buffer_size                   32 # number of packets in ejection buffer
-gpgpu_n_ldst_response_buffer_size                    2 # number of response packets in ld/st unit ejection buffer
-gpgpu_shmem_per_block                49152 # Size of shared memory per thread block or CTA (default 48kB)
-gpgpu_shmem_size                   65536 # Size of shared memory per shader core (default 16kB)
-gpgpu_shmem_option                 32,64 # Option list of shared memory sizes
-gpgpu_unified_l1d_size                   96 # Size of unified data cache(L1D + shared memory) in KB
-gpgpu_adaptive_cache_config                    1 # adaptive_cache_config
-gpgpu_shmem_sizeDefault                65536 # Size of shared memory per shader core (default 16kB)
-gpgpu_shmem_size_PrefL1                16384 # Size of shared memory per shader core (default 16kB)
-gpgpu_shmem_size_PrefShared                16384 # Size of shared memory per shader core (default 16kB)
-gpgpu_shmem_num_banks                   32 # Number of banks in the shared memory in each shader core (default 16)
-gpgpu_shmem_limited_broadcast                    0 # Limit shared memory to do one broadcast per cycle (default on)
-gpgpu_shmem_warp_parts                    1 # Number of portions a warp is divided into for shared memory bank conflict check 
-gpgpu_mem_unit_ports                    1 # The number of memory transactions allowed per core cycle
-gpgpu_shmem_warp_parts                    1 # Number of portions a warp is divided into for shared memory bank conflict check 
-gpgpu_warpdistro_shader                   -1 # Specify which shader core to collect the warp size distribution from
-gpgpu_warp_issue_shader                    0 # Specify which shader core to collect the warp issue distribution from
-gpgpu_local_mem_map                    1 # Mapping from local memory space address to simulated GPU physical address space (default = enabled)
-gpgpu_num_reg_banks                    8 # Number of register banks (default = 8)
-gpgpu_reg_bank_use_warp_id                    0 # Use warp ID in mapping registers to banks (default = off)
-gpgpu_sub_core_model                    1 # Sub Core Volta/Pascal model (default = off)
-gpgpu_enable_specialized_operand_collector                    0 # enable_specialized_operand_collector
-gpgpu_operand_collector_num_units_sp                    4 # number of collector units (default = 4)
-gpgpu_operand_collector_num_units_dp                    0 # number of collector units (default = 0)
-gpgpu_operand_collector_num_units_sfu                    4 # number of collector units (default = 4)
-gpgpu_operand_collector_num_units_int                    0 # number of collector units (default = 0)
-gpgpu_operand_collector_num_units_tensor_core                    4 # number of collector units (default = 4)
-gpgpu_operand_collector_num_units_mem                    2 # number of collector units (default = 2)
-gpgpu_operand_collector_num_units_gen                    8 # number of collector units (default = 0)
-gpgpu_operand_collector_num_in_ports_sp                    1 # number of collector unit in ports (default = 1)
-gpgpu_operand_collector_num_in_ports_dp                    0 # number of collector unit in ports (default = 0)
-gpgpu_operand_collector_num_in_ports_sfu                    1 # number of collector unit in ports (default = 1)
-gpgpu_operand_collector_num_in_ports_int                    0 # number of collector unit in ports (default = 0)
-gpgpu_operand_collector_num_in_ports_tensor_core                    1 # number of collector unit in ports (default = 1)
-gpgpu_operand_collector_num_in_ports_mem                    1 # number of collector unit in ports (default = 1)
-gpgpu_operand_collector_num_in_ports_gen                    8 # number of collector unit in ports (default = 0)
-gpgpu_operand_collector_num_out_ports_sp                    1 # number of collector unit in ports (default = 1)
-gpgpu_operand_collector_num_out_ports_dp                    0 # number of collector unit in ports (default = 0)
-gpgpu_operand_collector_num_out_ports_sfu                    1 # number of collector unit in ports (default = 1)
-gpgpu_operand_collector_num_out_ports_int                    0 # number of collector unit in ports (default = 0)
-gpgpu_operand_collector_num_out_ports_tensor_core                    1 # number of collector unit in ports (default = 1)
-gpgpu_operand_collector_num_out_ports_mem                    1 # number of collector unit in ports (default = 1)
-gpgpu_operand_collector_num_out_ports_gen                    8 # number of collector unit in ports (default = 0)
-gpgpu_coalesce_arch                   75 # Coalescing arch (GT200 = 13, Fermi = 20)
-gpgpu_num_sched_per_core                    4 # Number of warp schedulers per core
-gpgpu_max_insn_issue_per_warp                    1 # Max number of instructions that can be issued per warp in one cycle by scheduler (either 1 or 2)
-gpgpu_dual_issue_diff_exec_units                    1 # should dual issue use two different execution unit resources (Default = 1)
-gpgpu_simt_core_sim_order                    1 # Select the simulation order of cores in a cluster (0=Fix, 1=Round-Robin)
-gpgpu_pipeline_widths 4,4,4,4,4,4,4,4,4,4,8,4,4 # Pipeline widths ID_OC_SP,ID_OC_DP,ID_OC_INT,ID_OC_SFU,ID_OC_MEM,OC_EX_SP,OC_EX_DP,OC_EX_INT,OC_EX_SFU,OC_EX_MEM,EX_WB,ID_OC_TENSOR_CORE,OC_EX_TENSOR_CORE
-gpgpu_tensor_core_avail                    1 # Tensor Core Available (default=0)
-gpgpu_num_sp_units                     4 # Number of SP units (default=1)
-gpgpu_num_dp_units                     4 # Number of DP units (default=0)
-gpgpu_num_int_units                    4 # Number of INT units (default=0)
-gpgpu_num_sfu_units                    4 # Number of SF units (default=1)
-gpgpu_num_tensor_core_units                    4 # Number of tensor_core units (default=1)
-gpgpu_num_mem_units                    1 # Number if ldst units (default=1) WARNING: not hooked up to anything
-gpgpu_scheduler                      lrr # Scheduler configuration: < lrr | gto | two_level_active > If two_level_active:<num_active_warps>:<inner_prioritization>:<outer_prioritization>For complete list of prioritization values see shader.h enum scheduler_prioritization_typeDefault: gto
-gpgpu_concurrent_kernel_sm                    0 # Support concurrent kernels on a SM (default = disabled)
-gpgpu_perfect_inst_const_cache                    1 # perfect inst and const cache mode, so all inst and const hits in the cache(default = disabled)
-gpgpu_inst_fetch_throughput                    4 # the number of fetched intruction per warp each cycle
-gpgpu_reg_file_port_throughput                    2 # the number ports of the register file
-specialized_unit_1         0,4,4,4,4,BRA # specialized unit config {<enabled>,<num_units>:<latency>:<initiation>,<ID_OC_SPEC>:<OC_EX_SPEC>,<NAME>}
-specialized_unit_2         0,4,4,4,4,BRA # specialized unit config {<enabled>,<num_units>:<latency>:<initiation>,<ID_OC_SPEC>:<OC_EX_SPEC>,<NAME>}
-specialized_unit_3         0,4,4,4,4,BRA # specialized unit config {<enabled>,<num_units>:<latency>:<initiation>,<ID_OC_SPEC>:<OC_EX_SPEC>,<NAME>}
-specialized_unit_4         0,4,4,4,4,BRA # specialized unit config {<enabled>,<num_units>:<latency>:<initiation>,<ID_OC_SPEC>:<OC_EX_SPEC>,<NAME>}
-specialized_unit_5         0,4,4,4,4,BRA # specialized unit config {<enabled>,<num_units>:<latency>:<initiation>,<ID_OC_SPEC>:<OC_EX_SPEC>,<NAME>}
-specialized_unit_6         0,4,4,4,4,BRA # specialized unit config {<enabled>,<num_units>:<latency>:<initiation>,<ID_OC_SPEC>:<OC_EX_SPEC>,<NAME>}
-specialized_unit_7         0,4,4,4,4,BRA # specialized unit config {<enabled>,<num_units>:<latency>:<initiation>,<ID_OC_SPEC>:<OC_EX_SPEC>,<NAME>}
-specialized_unit_8         0,4,4,4,4,BRA # specialized unit config {<enabled>,<num_units>:<latency>:<initiation>,<ID_OC_SPEC>:<OC_EX_SPEC>,<NAME>}
-gpgpu_perf_sim_memcpy                    1 # Fill the L2 cache on memcpy
-gpgpu_simple_dram_model                    0 # simple_dram_model with fixed latency and BW
-gpgpu_dram_scheduler                    1 # 0 = fifo, 1 = FR-FCFS (defaul)
-gpgpu_dram_partition_queues          64:64:64:64 # i2$:$2d:d2$:$2i
-l2_ideal                               0 # Use a ideal L2 cache that always hit
-gpgpu_cache:dl2     S:64:128:16,L:B:m:L:P,A:192:4,32:0,32 # unified banked L2 data cache config  {<nsets>:<bsize>:<assoc>,<rep>:<wr>:<alloc>:<wr_alloc>,<mshr>:<N>:<merge>,<mq>}
-gpgpu_cache:dl2_texture_only                    0 # L2 cache used for texture only
-gpgpu_n_mem                           12 # number of memory modules (e.g. memory controllers) in gpu
-gpgpu_n_sub_partition_per_mchannel                    2 # number of memory subpartition in each memory module
-gpgpu_n_mem_per_ctrlr                    1 # number of memory chips per memory controller
-gpgpu_memlatency_stat                   14 # track and display latency statistics 0x2 enables MC, 0x4 enables queue logs
-gpgpu_frfcfs_dram_sched_queue_size                   64 # 0 = unlimited (default); # entries per chip
-gpgpu_dram_return_queue_size                  192 # 0 = unlimited (default); # entries per chip
-gpgpu_dram_buswidth                    2 # default = 4 bytes (8 bytes per cycle at DDR)
-gpgpu_dram_burst_length                   16 # Burst length of each DRAM request (default = 4 data bus cycle)
-dram_data_command_freq_ratio                    4 # Frequency ratio between DRAM data bus and command bus (default = 2 times, i.e. DDR)
-gpgpu_dram_timing_opt nbk=16:CCD=4:RRD=12:RCD=24:RAS=55:RP=24:RC=78:CL=24:WL=8:CDLR=10:WR=24:nbkgrp=4:CCDL=6:RTPL=4 # DRAM timing parameters = {nbk:tCCD:tRRD:tRCD:tRAS:tRP:tRC:CL:WL:tCDLR:tWR:nbkgrp:tCCDL:tRTPL}
-gpgpu_l2_rop_latency                  194 # ROP queue latency (default 85)
-dram_latency                          96 # DRAM latency (default 30)
-dram_dual_bus_interface                    0 # dual_bus_interface (default = 0) 
-dram_bnk_indexing_policy                    0 # dram_bnk_indexing_policy (0 = normal indexing, 1 = Xoring with the higher bits) (Default = 0)
-dram_bnkgrp_indexing_policy                    1 # dram_bnkgrp_indexing_policy (0 = take higher bits, 1 = take lower bits) (Default = 0)
-dram_seperate_write_queue_enable                    0 # Seperate_Write_Queue_Enable
-dram_write_queue_size             32:28:16 # Write_Queue_Size
-dram_elimnate_rw_turnaround                    0 # elimnate_rw_turnaround i.e set tWTR and tRTW = 0
-icnt_flit_size                        40 # icnt_flit_size
-icnt_flit_size                        40 # icnt_flit_size
-mem_profiler                           0 # memory access runtime profiling (0 = not enabled)
-gpgpu_mem_addr_mapping dramid@8;00000000.00000000.00000000.00000000.0000RRRR.RRRRRRRR.RBBBCCCC.BCCSSSSS # mapping memory address to dram model {dramid@<start bit>;<memory address map>}
-gpgpu_mem_addr_test                    0 # run sweep test to check address mapping for aliased address
-gpgpu_mem_address_mask                    1 # 0 = old addressing mask, 1 = new addressing mask, 2 = new add. mask + flipped bank sel and chip sel bits
-gpgpu_memory_partition_indexing                    0 # 0 = no indexing, 1 = bitwise xoring, 2 = IPoly, 3 = custom indexing
-accelwattch_xml_file accelwattch_sass_sim.xml # AccelWattch XML file
-power_simulation_enabled                    1 # Turn on power simulator (1=On, 0=Off)
-power_per_cycle_dump                    1 # Dump detailed power output each cycle
-hw_perf_file_name            hw_perf.csv # Hardware Performance Statistics file
-hw_perf_bench_name    hw_perf_bench_name # Kernel Name in Hardware Performance Statistics file
-power_simulation_mode                    0 # Switch performance counter input for power simulation (0=Sim, 1=HW, 2=HW-Sim Hybrid)
-dvfs_enabled                           1 # Turn on DVFS for power model
-aggregate_power_stats                    0 # Accumulate power across all kernels
-accelwattch_hybrid_perfsim_L1_RH                    0 # Get L1 Read Hits for Accelwattch-Hybrid from Accel-Sim
-accelwattch_hybrid_perfsim_L1_RM                    0 # Get L1 Read Misses for Accelwattch-Hybrid from Accel-Sim
-accelwattch_hybrid_perfsim_L1_WH                    0 # Get L1 Write Hits for Accelwattch-Hybrid from Accel-Sim
-accelwattch_hybrid_perfsim_L1_WM                    0 # Get L1 Write Misses for Accelwattch-Hybrid from Accel-Sim
-accelwattch_hybrid_perfsim_L2_RH                    0 # Get L2 Read Hits for Accelwattch-Hybrid from Accel-Sim
-accelwattch_hybrid_perfsim_L2_RM                    0 # Get L2 Read Misses for Accelwattch-Hybrid from Accel-Sim
-accelwattch_hybrid_perfsim_L2_WH                    0 # Get L2 Write Hits for Accelwattch-Hybrid from Accel-Sim
-accelwattch_hybrid_perfsim_L2_WM                    0 # Get L2 Write Misses for Accelwattch-Hybrid from Accel-Sim
-accelwattch_hybrid_perfsim_CC_ACC                    0 # Get Constant Cache Acesses for Accelwattch-Hybrid from Accel-Sim
-accelwattch_hybrid_perfsim_SHARED_ACC                    0 # Get Shared Memory Acesses for Accelwattch-Hybrid from Accel-Sim
-accelwattch_hybrid_perfsim_DRAM_RD                    0 # Get DRAM Reads for Accelwattch-Hybrid from Accel-Sim
-accelwattch_hybrid_perfsim_DRAM_WR                    0 # Get DRAM Writes for Accelwattch-Hybrid from Accel-Sim
-accelwattch_hybrid_perfsim_NOC                    0 # Get Interconnect Acesses for Accelwattch-Hybrid from Accel-Sim
-accelwattch_hybrid_perfsim_PIPE_DUTY                    0 # Get Pipeline Duty Cycle Acesses for Accelwattch-Hybrid from Accel-Sim
-accelwattch_hybrid_perfsim_NUM_SM_IDLE                    0 # Get Number of Idle SMs for Accelwattch-Hybrid from Accel-Sim
-accelwattch_hybrid_perfsim_CYCLES                    0 # Get Executed Cycles for Accelwattch-Hybrid from Accel-Sim
-accelwattch_hybrid_perfsim_VOLTAGE                    0 # Get Chip Voltage for Accelwattch-Hybrid from Accel-Sim
-power_trace_enabled                    0 # produce a file for the power trace (1=On, 0=Off)
-power_trace_zlevel                     0 # Compression level of the power trace output log (0=no comp, 9=highest)
-steady_power_levels_enabled                    0 # produce a file for the steady power levels (1=On, 0=Off)
-steady_state_definition                  8:4 # allowed deviation:number of samples
-gpgpu_max_cycle                        0 # terminates gpu simulation early (0 = no limit)
-gpgpu_max_insn                         0 # terminates gpu simulation early (0 = no limit)
-gpgpu_max_cta                          0 # terminates gpu simulation early (0 = no limit)
-gpgpu_max_completed_cta                    0 # terminates gpu simulation early (0 = no limit)
-gpgpu_runtime_stat                  1000 # display runtime statistics such as dram utilization {<freq>:<flag>}
-liveness_message_freq                    1 # Minimum number of seconds between simulation liveness messages (0 = always print)
-gpgpu_compute_capability_major                    7 # Major compute capability version number
-gpgpu_compute_capability_minor                    5 # Minor compute capability version number
-gpgpu_flush_l1_cache                    1 # Flush L1 cache at the end of each kernel call
-gpgpu_flush_l2_cache                    0 # Flush L2 cache at the end of each kernel call
-gpgpu_deadlock_detect                    1 # Stop the simulation at deadlock (1=on (default), 0=off)
-gpgpu_ptx_instruction_classification                    0 # if enabled will classify ptx instruction types per kernel (Max 255 kernels now)
-gpgpu_ptx_sim_mode                     0 # Select between Performance (default) or Functional simulation (1)
-gpgpu_clock_domains 1365:1365:1365:3500.5 # Clock Domain Frequencies in MhZ {<Core Clock>:<ICNT Clock>:<L2 Clock>:<DRAM Clock>}
-gpgpu_max_concurrent_kernel                  128 # maximum kernels that can run concurrently on GPU, set this value according to max resident grids for your compute capability
-gpgpu_cflog_interval                    0 # Interval between each snapshot in control flow logger
-visualizer_enabled                     0 # Turn on visualizer output (1=On, 0=Off)
-visualizer_outputfile                 NULL # Specifies the output log file for visualizer
-visualizer_zlevel                      6 # Compression level of the visualizer output log (0=no comp, 9=highest)
-gpgpu_stack_size_limit                 1024 # GPU thread stack size
-gpgpu_heap_size_limit              8388608 # GPU malloc heap size 
-gpgpu_runtime_sync_depth_limit                    2 # GPU device runtime synchronize depth
-gpgpu_runtime_pending_launch_count_limit                 2048 # GPU device runtime pending launch count
-trace_enabled                          0 # Turn on traces
-trace_components                    none # comma seperated list of traces to enable. Complete list found in trace_streams.tup. Default none
-trace_sampling_core                    0 # The core which is printed using CORE_DPRINTF. Default 0
-trace_sampling_memory_partition                   -1 # The memory partition which is printed using MEMPART_DPRINTF. Default -1 (i.e. all)
-enable_ptx_file_line_stats                    1 # Turn on PTX source line statistic profiling. (1 = On)
-ptx_line_stats_filename gpgpu_inst_stats.txt # Output file for PTX source line statistics.
-gpgpu_kernel_launch_latency                 5000 # Kernel launch latency in cycles. Default: 0
-gpgpu_cdp_enabled                      0 # Turn on CDP
-gpgpu_TB_launch_latency                    0 # thread block launch latency in cycles. Default: 0
-mem_runtime_stat                     100 # memory access runtime profiling sampling6d79ca2272a5b7c8e28ce825c6acb312  /home/pars/Documents/sim_7/mst_topo
Extracting PTX file and ptxas options    1: mst_topo.1.sm_75.ptx -arch=sm_75
 freq
-L1D_metrics                            0 # memory access runtime profiling for L1 data cache
-IPC_per_prof_interval                    0 # IPC per profiling interval
-instruction_monitor                    0 # Instruction monitor
-noncoal_metrics                        0 # memory access runtime profiling for shared memory
-L2_metrics                             0 # memory access runtime profiling for L2 cache
-DRAM_metrics                           0 # memory access runtime profiling for DRAM
-Shmem_metrics                          0 # memory access runtime profiling for noncoalesced accesses
-store_enable                           0 # Enable stores for memory profiling
-accumulate_stats                       0 # Accumulate stats for the memory profiling
-dump_enable                            0 # Process dump enable flag - (def = 0)
-flush_l1d                              0 # Enable flushings for L1D caches - (default = 0)
-flush_l2                               0 # Enable flushings for L2 caches - (default = 0)
-flush_dram                             0 # Enable flushings for DRAM - (default = 0)
-flush_noncoalesceds                    0 # Enable flushings for non coalesced accesses - (default = 0)
-flush_shmems                           0 # Enable flushings for shared memory accesses - (default = 0)
-error_percentage          21474836480001 # Error percentage for the flushes - (default = 1)
-dump_sampling_cycle       21474836485000 # Dump sampling frequency - (default = 5000)
-flush_acc_type                         2 # Flush access types
-monitor_sampling_cycle                 5000 # Monitoring sampling cycle - (default = 5000)
DRAM Timing Options:
nbk                                    16 # number of banks
CCD                                     4 # column to column delay
RRD                                    12 # minimal delay between activation of rows in different banks
RCD                                    24 # row to column delay
RAS                                    55 # time needed to activate row
RP                                     24 # time needed to precharge (deactivate) row
RC                                     78 # row cycle time
CDLR                                   10 # switching from write to read (changes tWTR)
WR                                     24 # last data-in to row precharge
CL                                     24 # CAS latency
WL                                      8 # Write latency
nbkgrp                                  4 # number of bank groups
CCDL                                    6 # column to column delay between accesses to different bank groups
RTPL                                    4 # read to precharge delay between accesses to different bank groups
Total number of memory sub partition = 24
addr_dec_mask[CHIP]  = 0000000000000000 	high:64 low:0
addr_dec_mask[BK]    = 0000000000007080 	high:15 low:7
addr_dec_mask[ROW]   = 000000000fff8000 	high:28 low:15
addr_dec_mask[COL]   = 0000000000000f7f 	high:12 low:0
addr_dec_mask[BURST] = 000000000000001f 	high:5 low:0
sub_partition_id_mask = 0000000000000080
GPGPU-Sim uArch: clock freqs: 1365000000.000000:1365000000.000000:1365000000.000000:3500500000.000000
GPGPU-Sim uArch: clock periods: 0.00000000073260073260:0.00000000073260073260:0.00000000073260073260:0.00000000028567347522
*** Initializing Memory Statistics ***
GPGPU-Sim uArch: performance model initialization complete.
self exe links to: /home/pars/Documents/sim_7/mst_topo
self exe links to: /home/pars/Documents/sim_7/mst_topo
11.0
GPGPU-Sim PTX: __cudaRegisterFatBinary, fat_cubin_handle = 1, filename=default
self exe links to: /home/pars/Documents/sim_7/mst_topo
Running md5sum using "md5sum /home/pars/Documents/sim_7/mst_topo "
self exe links to: /home/pars/Documents/sim_7/mst_topo
Extracting specific PTX file named mst_topo.1.sm_75.ptx 
GPGPU-Sim PTX: __cudaRegisterFunction _ZN3cub11EmptyKernelIvEEvv : hostFun 0x0x560a4758067c, fat_cubin_handle = 1
GPGPU-Sim PTX: Parsing mst_topo.1.sm_75.ptx
GPGPU-Sim PTX: allocating stack frame region for .param "func_retval0" from 0x0 to 0x4
GPGPU-Sim PTX: allocating stack frame region for .param "vprintf_param_0" from 0x4 to 0xc
GPGPU-Sim PTX: allocating stack frame region for .param "vprintf_param_1" from 0xc to 0x14
GPGPU-Sim PTX: allocating global region for "g_mutex" from 0x100 to 0x104 (global memory space)
GPGPU-Sim PTX: allocating global region for "_ZN37_INTERNAL_8cb3f789_7_main_cu_07b28d9b6thrust6system6detail10sequential3seqE" from 0x104 to 0x105 (global memory space)
GPGPU-Sim PTX: allocating global region for "_ZN37_INTERNAL_8cb3f789_7_main_cu_07b28d9b6thrust12placeholders2_1E" from 0x105 to 0x106 (global memory space)
GPGPU-Sim PTX: allocating global region for "_ZN37_INTERNAL_8cb3f789_7_main_cu_07b28d9b6thrust12placeholders2_2E" from 0x106 to 0x107 (global memory space)
GPGPU-Sim PTX: allocating global region for "_ZN37_INTERNAL_8cb3f789_7_main_cu_07b28d9b6thrust12placeholders2_3E" from 0x107 to 0x108 (global memory space)
GPGPU-Sim PTX: allocating global region for "_ZN37_INTERNAL_8cb3f789_7_main_cu_07b28d9b6thrust12placeholders2_4E" from 0x108 to 0x109 (global memory space)
GPGPU-Sim PTX: allocating global region for "_ZN37_INTERNAL_8cb3f789_7_main_cu_07b28d9b6thrust12placeholders2_5E" from 0x109 to 0x10a (global memory space)
GPGPU-Sim PTX: allocating global region for "_ZN37_INTERNAL_8cb3f789_7_main_cu_07b28d9b6thrust12placeholders2_6E" from 0x10a to 0x10b (global memory space)
GPGPU-Sim PTX: allocating global region for "_ZN37_INTERNAL_8cb3f789_7_main_cu_07b28d9b6thrust12placeholders2_7E" from 0x10b to 0x10c (global memory space)
GPGPU-Sim PTX: allocating global region for "_ZN37_INTERNAL_8cb3f789_7_main_cu_07b28d9b6thrust12placeholders2_8E" from 0x10c to 0x10d (global memory space)
GPGPU-Sim PTX: allocating global region for "_ZN37_INTERNAL_8cb3f789_7_main_cu_07b28d9b6thrust12placeholders2_9E" from 0x10d to 0x10e (global memory space)
GPGPU-Sim PTX: allocating global region for "_ZN37_INTERNAL_8cb3f789_7_main_cu_07b28d9b6thrust12placeholders3_10E" from 0x10e to 0x10f (global memory space)
GPGPU-Sim PTX: allocating global region for "$str" from 0x180 to 0x195 (global memory space)
GPGPU-Sim PTX: allocating global region for "$str$1" from 0x200 to 0x20c (global memory space)
GPGPU-Sim PTX: allocating stack frame region for .local "__local_depot0" from 0x0 to 0x8
GPGPU-Sim PTX: allocating stack frame region for .param "param0" from 0x8 to 0x10
GPGPU-Sim PTX: allocating stack frame region for .param "param1" from 0x10 to 0x18
GPGPU-Sim PTX: allocating stack frame region for .param "retval0" from 0x18 to 0x1c
GPGPU-Sim PTX: allocating stack frame region for .param "param0" from 0x1c to 0x24
GPGPU-Sim PTX: allocating stack frame region for .param "param1" from 0x24 to 0x2c
GPGPU-Sim PTX: allocating stack frame region for .param "retval0" from 0x2c to 0x30
GPGPU-Sim PTX: allocating stack frame region for .param "param0" from 0x30 to 0x38
GPGPU-Sim PTX: allocating stack frame region for .param "param1" from 0x38 to 0x40
GPGPU-Sim PTX: allocating stack frame region for .param "retval0" from 0x40 to 0x44
GPGPU-Sim PTX: allocating stack frame region for .param "param0" from 0x44 to 0x4c
GPGPU-Sim PTX: allocating stack frame region for .param "param1" from 0x4c to 0x54
GPGPU-Sim PTX: allocating stack frame region for .param "retval0" from 0x54 to 0x58
GPGPU-Sim PTX: allocating stack frame region for .param "param0" from 0x58 to 0x60
GPGPU-Sim PTX: allocating stack frame region for .param "param1" from 0x60 to 0x68
GPGPU-Sim PTX: allocating stack frame region for .param "retval0" from 0x68 to 0x6c
GPGPU-Sim PTX: Warning -- ignoring pragma 'nounroll'
GPGPU-Sim PTX: allocating stack frame region for .param "param0" from 0x6c to 0x74
GPGPU-Sim PTX: allocating stack frame region for .param "param1" from 0x74 to 0x7c
GPGPU-Sim PTX: allocating stack frame region for .param "retval0" from 0x7c to 0x80
GPGPU-Sim PTX: allocating stack frame region for .param "param0" from 0x80 to 0x88
GPGPU-Sim PTX: allocating stack frame region for .param "param1" from 0x88 to 0x90
GPGPU-Sim PTX: allocating stack frame region for .param "retval0" from 0x90 to 0x94
GPGPU-Sim PTX: instruction assembly for function '_Z8print1x114ComponentSpace'...   done.
GPGPU-Sim PTX: instruction assembly for function '_Z7dinitcsjPjS_'...   done.
GPGPU-Sim PTX: instruction assembly for function '_Z5dinitiPjS_S_PbS_'...   done.
GPGPU-Sim PTX: instruction assembly for function '_Z11dfindeleminiPiS_S_Pj14ComponentSpaceS0_S0_S0_'...   done.
GPGPU-Sim PTX: instruction assembly for function '_Z12dfindelemin2iPiS_S_14ComponentSpacePjS1_S1_S1_'...   done.
GPGPU-Sim PTX: instruction assembly for function '_Z15verify_min_elemiPiS_S_14ComponentSpacePjS1_PbS1_'...   done.
GPGPU-Sim PTX: instruction assembly for function '_Z15dfindcompmintwoiPj14ComponentSpaceS_S_S_Pb13GlobalBarrierS1_S_'...   done.
GPGPU-Sim PTX: instruction assembly for function '_ZN3cub11EmptyKernelIvEEvv'...   done.
GPGPU-Sim PTX: finished parsing EMBEDDED .ptx file mst_topo.1.sm_75.ptx
GPGPU-Sim PTX: loading globals with explicit initializers... 
GPGPU-Sim PTX:     initializing '$str' ...  wrote 21 bytes
GPGPU-Sim PTX:     initializing '$str$1' ...  wrote 12 bytes
GPGPU-Sim PTX: finished loading globals (33 bytes total).
GPGPU-Sim PTX: loading constants with explicit initializers...  done.
GPGPU-Sim PTX: Loading PTXInfo from mst_topo.1.sm_75.ptx
GPGPU-Sim PTX: Kernel '_ZN3cub11EmptyKernelIvEEvv' : regs=4, lmem=0, smem=0, cmem=352
GPGPU-Sim PTX: Kernel '_Z15dfindcompmintwoiPj14ComponentSpaceS_S_S_Pb13GlobalBarrierS1_S_' : regs=23, lmem=0, smem=0, cmem=456
GPGPU-Sim PTX: Kernel '_Z15verify_min_elemiPiS_S_14ComponentSpacePjS1_PbS1_' : regs=18, lmem=0, smem=0, cmem=448
GPGPU-Sim PTX: Kernel '_Z12dfindelemin2iPiS_S_14ComponentSpacePjS1_S1_S1_' : regs=18, lmem=0, smem=0, cmem=448
GPGPU-Sim PTX: Kernel '_Z11dfindeleminiPiS_S_Pj14ComponentSpaceS0_S0_S0_' : regs=22, lmem=0, smem=0, cmem=448
GPGPU-Sim PTX: Kernel '_Z5dinitiPjS_S_PbS_' : regs=18, lmem=0, smem=0, cmem=400
GPGPU-Sim PTX: Kernel '_Z7dinitcsjPjS_' : regs=12, lmem=0, smem=0, cmem=376
GPGPU-Sim PTX: Kernel '_Z8print1x114ComponentSpace' : regs=30, lmem=0, smem=0, cmem=384
GPGPU-Sim PTX: __cudaRegisterFunction _Z15dfindcompmintwoiPj14ComponentSpaceS_S_S_Pb13GlobalBarrierS1_S_ : hostFun 0x0x560a4757f35a, fat_cubin_handle = 1
GPGPU-Sim PTX: __cudaRegisterFunction _Z15verify_min_elemiPiS_S_14ComponentSpacePjS1_PbS1_ : hostFun 0x0x560a4757f063, fat_cubin_handle = 1
GPGPU-Sim PTX: __cudaRegisterFunction _Z12dfindelemin2iPiS_S_14ComponentSpacePjS1_S1_S1_ : hostFun 0x0x560a4757ede5, fat_cubin_handle = 1
GPGPU-Sim PTX: __cudaRegisterFunction _Z11dfindeleminiPiS_S_Pj14ComponentSpaceS0_S0_S0_ : hostFun 0x0x560a4757eb67, fat_cubin_handle = 1
GPGPU-Sim PTX: __cudaRegisterFunction _Z5dinitiPjS_S_PbS_ : hostFun 0x0x560a4757e8f7, fat_cubin_handle = 1
GPGPU-Sim PTX: __cudaRegisterFunction _Z7dinitcsjPjS_ : hostFun 0x0x560a4757e719, fat_cubin_handle = 1
GPGPU-Sim PTX: __cudaRegisterFunction _Z8print1x114ComponentSpace : hostFun 0x0x560a4757e5b3, fat_cubin_handle = 1
GPGPU-Sim PTX: __cudaRegisterVar: hostVar = 0x560a475930a8; deviceAddress = g_mutex; deviceName = g_mutex
GPGPU-Sim PTX: __cudaRegisterVar: Registering const memory space of 4 bytes
GPGPU-Sim PTX registering global g_mutex hostVar to name mapping
GPGPU-Sim PTX: __cudaRegisterVar: hostVar = 0x560a475842d1; deviceAddress = _ZN37_INTERNAL_8cb3f789_7_main_cu_07b28d9b6thrust6system6detail10sequential3seqE; deviceName = _ZN37_INTERNAL_8cb3f789_7_main_cu_07b28d9b6thrust6system6detail10sequential3seqE
GPGPU-Sim PTX: __cudaRegisterVar: Registering const memory space of 1 bytes
GPGPU-Sim PTX registering global _ZN37_INTERNAL_8cb3f789_7_main_cu_07b28d9b6thrust6system6detail10sequential3seqE hostVar to name mapping
GPGPU-Sim PTX: __cudaRegisterVar: hostVar = 0x560a4758440c; deviceAddress = _ZN37_INTERNAL_8cb3f789_7_main_cu_07b28d9b6thrust12placeholders2_1E; deviceName = _ZN37_INTERNAL_8cb3f789_7_main_cu_07b28d9b6thrust12placeholders2_1E
GPGPU-Sim PTX: __cudaRegisterVar: Registering const memory space of 1 bytes
GPGPU-Sim PTX registering global _ZN37_INTERNAL_8cb3f789_7_main_cu_07b28d9b6thrust12placeholders2_1E hostVar to name mapping
GPGPU-Sim PTX: __cudaRegisterVar: hostVar = 0x560a4758440d; deviceAddress = _ZN37_INTERNAL_8cb3f789_7_main_cu_07b28d9b6thrust12placeholders2_2E; deviceName = _ZN37_INTERNAL_8cb3f789_7_main_cu_07b28d9b6thrust12placeholders2_2E
GPGPU-Sim PTX: __cudaRegisterVar: Registering const memory space of 1 bytes
GPGPU-Sim PTX registering global _ZN37_INTERNAL_8cb3f789_7_main_cu_07b28d9b6thrust12placeholders2_2E hostVar to name mapping
GPGPU-Sim PTX: __cudaRegisterVar: hostVar = 0x560a4758440e; deviceAddress = _ZN37_INTERNAL_8cb3f789_7_main_cu_07b28d9b6thrust12placeholders2_3E; deviceName = _ZN37_INTERNAL_8cb3f789_7_main_cu_07b28d9b6thrust12placeholders2_3E
GPGPU-Sim PTX: __cudaRegisterVar: Registering const memory space of 1 bytes
GPGPU-Sim PTX registering global _ZN37_INTERNAL_8cb3f789_7_main_cu_07b28d9b6thrust12placeholders2_3E hostVar to name mapping
GPGPU-Sim PTX: __cudaRegisterVar: hostVar = 0x560a4758440f; deviceAddress = _ZN37_INTERNAL_8cb3f789_7_main_cu_07b28d9b6thrust12placeholders2_4E; deviceName = _ZN37_INTERNAL_8cb3f789_7_main_cu_07b28d9b6thrust12placeholders2_4E
GPGPU-Sim PTX: __cudaRegisterVar: Registering const memory space of 1 bytes
GPGPU-Sim PTX registering global _ZN37_INTERNAL_8cb3f789_7_main_cu_07b28d9b6thrust12placeholders2_4E hostVar to name mapping
GPGPU-Sim PTX: __cudaRegisterVar: hostVar = 0x560a47584410; deviceAddress = _ZN37_INTERNAL_8cb3f789_7_main_cu_07b28d9b6thrust12placeholders2_5E; deviceName = _ZN37_INTERNAL_8cb3f789_7_main_cu_07b28d9b6thrust12placeholders2_5E
GPGPU-Sim PTX: __cudaRegisterVar: Registering const memory space of 1 bytes
GPGPU-Sim PTX registering global _ZN37_INTERNAL_8cb3f789_7_main_cu_07b28d9b6thrust12placeholders2_5E hostVar to name mapping
GPGPU-Sim PTX: __cudaRegisterVar: hostVar = 0x560a47584411; deviceAddress = _ZN37_INTERNAL_8cb3f789_7_main_cu_07b28d9b6thrust12placeholders2_6E; deviceName = _ZN37_INTERNAL_8cb3f789_7_main_cu_07b28d9b6thrust12placeholders2_6E
GPGPU-Sim PTX: __cudaRegisterVar: Registering const memory space of 1 bytes
GPGPU-Sim PTX registering global _ZN37_INTERNAL_8cb3f789_7_main_cu_07b28d9b6thrust12placeholders2_6E hostVar to name mapping
GPGPU-Sim PTX: __cudaRegisterVar: hostVar = 0x560a47584412; deviceAddress = _ZN37_INTERNAL_8cb3f789_7_main_cu_07b28d9b6thrust12placeholders2_7E; deviceName = _ZN37_INTERNAL_8cb3f789_7_main_cu_07b28d9b6thrust12placeholders2_7E
GPGPU-Sim PTX: __cudaRegisterVar: Registering const memory space of 1 bytes
GPGPU-Sim PTX registering global _ZN37_INTERNAL_8cb3f789_7_main_cu_07b28d9b6thrust12placeholders2_7E hostVar to name mapping
GPGPU-Sim PTX: __cudaRegisterVar: hostVar = 0x560a47584413; deviceAddress = _ZN37_INTERNAL_8cb3f789_7_main_cu_07b28d9b6thrust12placeholders2_8E; deviceName = _ZN37_INTERNAL_8cb3f789_7_main_cu_07b28d9b6thrust12placeholders2_8E
GPGPU-Sim PTX: __cudaRegisterVar: Registering const memory space of 1 bytes
GPGPU-Sim PTX registering global _ZN37_INTERNAL_8cb3f789_7_main_cu_07b28d9b6thrust12placeholders2_8E hostVar to name mapping
GPGPU-Sim PTX: __cudaRegisterVar: hostVar = 0x560a47584414; deviceAddress = _ZN37_INTERNAL_8cb3f789_7_main_cu_07b28d9b6thrust12placeholders2_9E; deviceName = _ZN37_INTERNAL_8cb3f789_7_main_cu_07b28d9b6thrust12placeholders2_9E
GPGPU-Sim PTX: __cudaRegisterVar: Registering const memory space of 1 bytes
GPGPU-Sim PTX registering global _ZN37_INTERNAL_8cb3f789_7_main_cu_07b28d9b6thrust12placeholders2_9E hostVar to name mapping
GPGPU-Sim PTX: __cudaRegisterVar: hostVar = 0x560a47584415; deviceAddress = _ZN37_INTERNAL_8cb3f789_7_main_cu_07b28d9b6thrust12placeholders3_10E; deviceName = _ZN37_INTERNAL_8cb3f789_7_main_cu_07b28d9b6thrust12placeholders3_10E
GPGPU-Sim PTX: __cudaRegisterVar: Registering const memory space of 1 bytes
GPGPU-Sim PTX registering global _ZN37_INTERNAL_8cb3f789_7_main_cu_07b28d9b6thrust12placeholders3_10E hostVar to name mapping
Minimum Spanning Tree by Xuhao Chen
Reading (.mtx) input file ../CudaBenchmarks/gardenia/datasets/new/econ-psmigr2.mtx
Before cleaning, the original num_vertices 3140 num_edges 540022
Sorting the neighbor lists... Done
Removing self loops... 0 selfloops are removed
Removing redundent edges... 258482 redundent edges are removed
num_vertices 3140 num_edges 821562
	runtime [read_graph] = 624.392000 ms.
Calculating degree... Done
Found 1 devices
  Device[0]: GPGPU-Sim_vGPGPU-Sim Simulator Version 4.2.0 
  Compute capability: 7.5
  Warp size: 32
  Total # SM: 30
  Total # CUDA cores: 1920
  Total amount of shared memory per block: 49152 bytes
  Total # registers per block: 65536
  Total amount of constant memory: 1073741824 bytes
  Total global memory: 2.0 GB
  Memory Clock Rate: 0.00 GHz
  Memory Bus Width: 0 bits
  Peak Memory Bandwidth: 0.00 GB/s

GPGPU-Sim PTX: cudaMemcpyToSymbol: symbol = 0x560a475930a8
GPGPU-Sim PTX: starting gpgpu_ptx_sim_memcpy_symbol with hostVar 0x0x560a475930a8
GPGPU-Sim PTX: gpgpu_ptx_sim_memcpy_symbol: Found PTX symbol w/ hostVar=0x560a475930a8
GPGPU-Sim PTX: gpgpu_ptx_sim_memcpy_symbol: copying global memory 4 bytes  to  symbol g_mutex+0 @0x100 ...
GPGPU-Sim PTX: Setting up arguments for 4 bytes starting at 0x7ffe24462bdc..
GPGPU-Sim PTX: Setting up arguments for 8 bytes starting at 0x7ffe24462bd0..
GPGPU-Sim PTX: Setting up arguments for 8 bytes starting at 0x7ffe24462bc8..

GPGPU-Sim PTX: cudaLaunch for 0x0x560a4757e719 (mode=performance simulation) on stream 0
GPGPU-Sim PTX: finding reconvergence points for '_Z7dinitcsjPjS_'...
GPGPU-Sim PTX: Finding dominators for '_Z7dinitcsjPjS_'...
GPGPU-Sim PTX: Finding immediate dominators for '_Z7dinitcsjPjS_'...
GPGPU-Sim PTX: Finding postdominators for '_Z7dinitcsjPjS_'...
GPGPU-Sim PTX: Finding immediate postdominators for '_Z7dinitcsjPjS_'...
GPGPU-Sim PTX: pre-decoding instructions for '_Z7dinitcsjPjS_'...
GPGPU-Sim PTX: reconvergence points for _Z7dinitcsjPjS_...
GPGPU-Sim PTX:  1 (potential) branch divergence @  PC=0x2b8 (mst_topo.1.sm_75.ptx:237) @%p1 bra $L__BB1_2;

GPGPU-Sim PTX:    immediate post dominator      @  PC=0x300 (mst_topo.1.sm_75.ptx:249) ret;

GPGPU-Sim PTX: ... end of reconvergence points for _Z7dinitcsjPjS_
GPGPU-Sim PTX: ... done pre-decoding instructions for '_Z7dinitcsjPjS_'.
GPGPU-Sim PTX: pushing kernel '_Z7dinitcsjPjS_' to stream 0, gridDim= (4,1,1) blockDim = (1024,1,1) 
GPGPU-Sim uArch: Shader 0 bind to kernel 1 '_Z7dinitcsjPjS_'
GPGPU-Sim uArch: CTA/core = 1, limited by: threads
GPGPU-Sim: Reconfigure L1 cache to 64KB
GPGPU-Sim uArch: Shader 1 bind to kernel 1 '_Z7dinitcsjPjS_'
GPGPU-Sim uArch: Shader 2 bind to kernel 1 '_Z7dinitcsjPjS_'
GPGPU-Sim uArch: Shader 3 bind to kernel 1 '_Z7dinitcsjPjS_'
Destroy streams for kernel 1: size 0
kernel_name = _Z7dinitcsjPjS_ 
kernel_launch_uid = 1 
gpu_sim_cycle = 5670
gpu_sim_insn = 62940
gpu_ipc =      11.1005
gpu_tot_sim_cycle = 5670
gpu_tot_sim_insn = 62940
gpu_tot_ipc =      11.1005
gpu_tot_issued_cta = 4
gpu_occupancy = 83.7956% 
gpu_tot_occupancy = 83.7956% 
max_total_param_size = 0
gpu_stall_dramfull = 0
gpu_stall_icnt2sh    = 0
partiton_level_parallism =       0.1386
partiton_level_parallism_total  =       0.1386
partiton_level_parallism_util =       3.0115
partiton_level_parallism_util_total  =       3.0115
L2_BW  =       6.0551 GB/Sec
L2_BW_total  =       6.0551 GB/Sec
gpu_total_sim_rate=7867

========= Core cache stats =========
L1I_cache:
	L1I_total_cache_accesses = 0
	L1I_total_cache_misses = 0
	L1I_total_cache_pending_hits = 0
	L1I_total_cache_reservation_fails = 0
L1D_cache:
	L1D_cache_core[0]: Access = 256, Miss = 256, Miss_rate = 1.000, Pending_hits = 0, Reservation_fails = 343
	L1D_cache_core[1]: Access = 256, Miss = 256, Miss_rate = 1.000, Pending_hits = 0, Reservation_fails = 343
	L1D_cache_core[2]: Access = 256, Miss = 256, Miss_rate = 1.000, Pending_hits = 0, Reservation_fails = 343
	L1D_cache_core[3]: Access = 18, Miss = 18, Miss_rate = 1.000, Pending_hits = 0, Reservation_fails = 0
	L1D_cache_core[4]: Access = 0, Miss = 0, Miss_rate = -nan, Pending_hits = 0, Reservation_fails = 0
	L1D_cache_core[5]: Access = 0, Miss = 0, Miss_rate = -nan, Pending_hits = 0, Reservation_fails = 0
	L1D_cache_core[6]: Access = 0, Miss = 0, Miss_rate = -nan, Pending_hits = 0, Reservation_fails = 0
	L1D_cache_core[7]: Access = 0, Miss = 0, Miss_rate = -nan, Pending_hits = 0, Reservation_fails = 0
	L1D_cache_core[8]: Access = 0, Miss = 0, Miss_rate = -nan, Pending_hits = 0, Reservation_fails = 0
	L1D_cache_core[9]: Access = 0, Miss = 0, Miss_rate = -nan, Pending_hits = 0, Reservation_fails = 0
	L1D_cache_core[10]: Access = 0, Miss = 0, Miss_rate = -nan, Pending_hits = 0, Reservation_fails = 0
	L1D_cache_core[11]: Access = 0, Miss = 0, Miss_rate = -nan, Pending_hits = 0, Reservation_fails = 0
	L1D_cache_core[12]: Access = 0, Miss = 0, Miss_rate = -nan, Pending_hits = 0, Reservation_fails = 0
	L1D_cache_core[13]: Access = 0, Miss = 0, Miss_rate = -nan, Pending_hits = 0, Reservation_fails = 0
	L1D_cache_core[14]: Access = 0, Miss = 0, Miss_rate = -nan, Pending_hits = 0, Reservation_fails = 0
	L1D_cache_core[15]: Access = 0, Miss = 0, Miss_rate = -nan, Pending_hits = 0, Reservation_fails = 0
	L1D_cache_core[16]: Access = 0, Miss = 0, Miss_rate = -nan, Pending_hits = 0, Reservation_fails = 0
	L1D_cache_core[17]: Access = 0, Miss = 0, Miss_rate = -nan, Pending_hits = 0, Reservation_fails = 0
	L1D_cache_core[18]: Access = 0, Miss = 0, Miss_rate = -nan, Pending_hits = 0, Reservation_fails = 0
	L1D_cache_core[19]: Access = 0, Miss = 0, Miss_rate = -nan, Pending_hits = 0, Reservation_fails = 0
	L1D_cache_core[20]: Access = 0, Miss = 0, Miss_rate = -nan, Pending_hits = 0, Reservation_fails = 0
	L1D_cache_core[21]: Access = 0, Miss = 0, Miss_rate = -nan, Pending_hits = 0, Reservation_fails = 0
	L1D_cache_core[22]: Access = 0, Miss = 0, Miss_rate = -nan, Pending_hits = 0, Reservation_fails = 0
	L1D_cache_core[23]: Access = 0, Miss = 0, Miss_rate = -nan, Pending_hits = 0, Reservation_fails = 0
	L1D_cache_core[24]: Access = 0, Miss = 0, Miss_rate = -nan, Pending_hits = 0, Reservation_fails = 0
	L1D_cache_core[25]: Access = 0, Miss = 0, Miss_rate = -nan, Pending_hits = 0, Reservation_fails = 0
	L1D_cache_core[26]: Access = 0, Miss = 0, Miss_rate = -nan, Pending_hits = 0, Reservation_fails = 0
	L1D_cache_core[27]: Access = 0, Miss = 0, Miss_rate = -nan, Pending_hits = 0, Reservation_fails = 0
	L1D_cache_core[28]: Access = 0, Miss = 0, Miss_rate = -nan, Pending_hits = 0, Reservation_fails = 0
	L1D_cache_core[29]: Access = 0, Miss = 0, Miss_rate = -nan, Pending_hits = 0, Reservation_fails = 0
	L1D_total_cache_accesses = 786
	L1D_total_cache_misses = 786
	L1D_total_cache_miss_rate = 1.0000
	L1D_total_cache_pending_hits = 0
	L1D_total_cache_reservation_fails = 1029
	L1D_cache_data_port_util = 0.000
	L1D_cache_fill_port_util = 0.000
L1C_cache:
	L1C_total_cache_accesses = 0
	L1C_total_cache_misses = 0
	L1C_total_cache_pending_hits = 0
	L1C_total_cache_reservation_fails = 0
L1T_cache:
	L1T_total_cache_accesses = 0
	L1T_total_cache_misses = 0
	L1T_total_cache_pending_hits = 0
	L1T_total_cache_reservation_fails = 0

Total_core_cache_stats:
	Total_core_cache_stats_breakdown[GLOBAL_ACC_R][HIT] = 0
	Total_core_cache_stats_breakdown[GLOBAL_ACC_R][HIT_RESERVED] = 0
	Total_core_cache_stats_breakdown[GLOBAL_ACC_R][MISS] = 0
	Total_core_cache_stats_breakdown[GLOBAL_ACC_R][RESERVATION_FAIL] = 0
	Total_core_cache_stats_breakdown[GLOBAL_ACC_R][SECTOR_MISS] = 0
	Total_core_cache_stats_breakdown[GLOBAL_ACC_R][MSHR_HIT] = 0
	Total_core_cache_stats_breakdown[LOCAL_ACC_R][HIT] = 0
	Total_core_cache_stats_breakdown[LOCAL_ACC_R][HIT_RESERVED] = 0
	Total_core_cache_stats_breakdown[LOCAL_ACC_R][MISS] = 0
	Total_core_cache_stats_breakdown[LOCAL_ACC_R][RESERVATION_FAIL] = 0
	Total_core_cache_stats_breakdown[LOCAL_ACC_R][SECTOR_MISS] = 0
	Total_core_cache_stats_breakdown[LOCAL_ACC_R][MSHR_HIT] = 0
	Total_core_cache_stats_breakdown[CONST_ACC_R][HIT] = 0
	Total_core_cache_stats_breakdown[CONST_ACC_R][HIT_RESERVED] = 0
	Total_core_cache_stats_breakdown[CONST_ACC_R][MISS] = 0
	Total_core_cache_stats_breakdown[CONST_ACC_R][RESERVATION_FAIL] = 0
	Total_core_cache_stats_breakdown[CONST_ACC_R][SECTOR_MISS] = 0
	Total_core_cache_stats_breakdown[CONST_ACC_R][MSHR_HIT] = 0
	Total_core_cache_stats_breakdown[TEXTURE_ACC_R][HIT] = 0
	Total_core_cache_stats_breakdown[TEXTURE_ACC_R][HIT_RESERVED] = 0
	Total_core_cache_stats_breakdown[TEXTURE_ACC_R][MISS] = 0
	Total_core_cache_stats_breakdown[TEXTURE_ACC_R][RESERVATION_FAIL] = 0
	Total_core_cache_stats_breakdown[TEXTURE_ACC_R][SECTOR_MISS] = 0
	Total_core_cache_stats_breakdown[TEXTURE_ACC_R][MSHR_HIT] = 0
	Total_core_cache_stats_breakdown[GLOBAL_ACC_W][HIT] = 0
	Total_core_cache_stats_breakdown[GLOBAL_ACC_W][HIT_RESERVED] = 0
	Total_core_cache_stats_breakdown[GLOBAL_ACC_W][MISS] = 198
	Total_core_cache_stats_breakdown[GLOBAL_ACC_W][RESERVATION_FAIL] = 1029
	Total_core_cache_stats_breakdown[GLOBAL_ACC_W][SECTOR_MISS] = 588
	Total_core_cache_stats_breakdown[GLOBAL_ACC_W][MSHR_HIT] = 0
	Total_core_cache_stats_breakdown[LOCAL_ACC_W][HIT] = 0
	Total_core_cache_stats_breakdown[LOCAL_ACC_W][HIT_RESERVED] = 0
	Total_core_cache_stats_breakdown[LOCAL_ACC_W][MISS] = 0
	Total_core_cache_stats_breakdown[LOCAL_ACC_W][RESERVATION_FAIL] = 0
	Total_core_cache_stats_breakdown[LOCAL_ACC_W][SECTOR_MISS] = 0
	Total_core_cache_stats_breakdown[LOCAL_ACC_W][MSHR_HIT] = 0
	Total_core_cache_stats_breakdown[L1_WRBK_ACC][HIT] = 0
	Total_core_cache_stats_breakdown[L1_WRBK_ACC][HIT_RESERVED] = 0
	Total_core_cache_stats_breakdown[L1_WRBK_ACC][MISS] = 0
	Total_core_cache_stats_breakdown[L1_WRBK_ACC][RESERVATION_FAIL] = 0
	Total_core_cache_stats_breakdown[L1_WRBK_ACC][SECTOR_MISS] = 0
	Total_core_cache_stats_breakdown[L1_WRBK_ACC][MSHR_HIT] = 0
	Total_core_cache_stats_breakdown[L2_WRBK_ACC][HIT] = 0
	Total_core_cache_stats_breakdown[L2_WRBK_ACC][HIT_RESERVED] = 0
	Total_core_cache_stats_breakdown[L2_WRBK_ACC][MISS] = 0
	Total_core_cache_stats_breakdown[L2_WRBK_ACC][RESERVATION_FAIL] = 0
	Total_core_cache_stats_breakdown[L2_WRBK_ACC][SECTOR_MISS] = 0
	Total_core_cache_stats_breakdown[L2_WRBK_ACC][MSHR_HIT] = 0
	Total_core_cache_stats_breakdown[INST_ACC_R][HIT] = 0
	Total_core_cache_stats_breakdown[INST_ACC_R][HIT_RESERVED] = 0
	Total_core_cache_stats_breakdown[INST_ACC_R][MISS] = 0
	Total_core_cache_stats_breakdown[INST_ACC_R][RESERVATION_FAIL] = 0
	Total_core_cache_stats_breakdown[INST_ACC_R][SECTOR_MISS] = 0
	Total_core_cache_stats_breakdown[INST_ACC_R][MSHR_HIT] = 0
	Total_core_cache_stats_breakdown[L1_WR_ALLOC_R][HIT] = 0
	Total_core_cache_stats_breakdown[L1_WR_ALLOC_R][HIT_RESERVED] = 0
	Total_core_cache_stats_breakdown[L1_WR_ALLOC_R][MISS] = 0
	Total_core_cache_stats_breakdown[L1_WR_ALLOC_R][RESERVATION_FAIL] = 0
	Total_core_cache_stats_breakdown[L1_WR_ALLOC_R][SECTOR_MISS] = 0
	Total_core_cache_stats_breakdown[L1_WR_ALLOC_R][MSHR_HIT] = 0
	Total_core_cache_stats_breakdown[L2_WR_ALLOC_R][HIT] = 0
	Total_core_cache_stats_breakdown[L2_WR_ALLOC_R][HIT_RESERVED] = 0
	Total_core_cache_stats_breakdown[L2_WR_ALLOC_R][MISS] = 0
	Total_core_cache_stats_breakdown[L2_WR_ALLOC_R][RESERVATION_FAIL] = 0
	Total_core_cache_stats_breakdown[L2_WR_ALLOC_R][SECTOR_MISS] = 0
	Total_core_cache_stats_breakdown[L2_WR_ALLOC_R][MSHR_HIT] = 0
	Total_core_cache_stats_breakdown[GLOBAL_ACC_W][TOTAL_ACCESS] = 786

Total_core_cache_fail_stats:
	Total_core_cache_fail_stats_breakdown[GLOBAL_ACC_W][MISS_QUEUE_FULL] = 1029
ctas_completed 4, Shader 0 warp_id issue ditsribution:
warp_id:
0, 1, 2, 3, 4, 5, 6, 7, 8, 9, 10, 11, 12, 13, 14, 15, 16, 17, 18, 19, 20, 21, 22, 23, 24, 25, 26, 27, 28, 29, 30, 31, 
distro:
18, 18, 18, 18, 18, 18, 18, 18, 18, 18, 18, 18, 18, 18, 18, 18, 18, 18, 18, 18, 18, 18, 18, 18, 18, 18, 18, 18, 18, 18, 18, 18, 
gpgpu_n_tot_thrd_icount = 66304
gpgpu_n_tot_w_icount = 2072
gpgpu_n_stall_shd_mem = 252
gpgpu_n_mem_read_local = 0
gpgpu_n_mem_write_local = 0
gpgpu_n_mem_read_global = 0
gpgpu_n_mem_write_global = 786
gpgpu_n_mem_texture = 0
gpgpu_n_mem_const = 0
gpgpu_n_load_insn  = 0
gpgpu_n_store_insn = 6280
gpgpu_n_shmem_insn = 0
gpgpu_n_sstarr_insn = 0
gpgpu_n_tex_insn = 0
gpgpu_n_const_mem_insn = 0
gpgpu_n_param_mem_insn = 12288
gpgpu_n_shmem_bkconflict = 0
gpgpu_n_cache_bkconflict = 0
gpgpu_n_intrawarp_mshr_merge = 0
gpgpu_n_cmem_portconflict = 0
gpgpu_stall_shd_mem[c_mem][resource_stall] = 0
gpgpu_stall_shd_mem[s_mem][bk_conf] = 0
gpgpu_stall_shd_mem[gl_mem][resource_stall] = 252
gpgpu_stall_shd_mem[gl_mem][coal_stall] = 0
gpgpu_stall_shd_mem[gl_mem][data_port_stall] = 0
gpu_reg_bank_conflict_stalls = 0
Warp Occupancy Distribution:
Stall:2632	W0_Idle:4871	W0_Scoreboard:193	W1:0	W2:0	W3:0	W4:8	W5:0	W6:0	W7:0	W8:0	W9:0	W10:0	W11:0	W12:0	W13:0	W14:0	W15:0	W16:0	W17:0	W18:0	W19:0	W20:0	W21:0	W22:0	W23:0	W24:0	W25:0	W26:0	W27:0	W28:0	W29:0	W30:0	W31:0	W32:2064
single_issue_nums: WS0:520	WS1:520	WS2:520	WS3:512	
dual_issue_nums: WS0:0	WS1:0	WS2:0	WS3:0	
traffic_breakdown_coretomem[GLOBAL_ACC_W] = 31440 {40:786,}
traffic_breakdown_memtocore[GLOBAL_ACC_W] = 6288 {8:786,}
maxmflatency = 342 
max_icnt2mem_latency = 144 
maxmrqlatency = 0 
max_icnt2sh_latency = 2 
mrq_lat_table:0 	0 	0 	0 	0 	0 	0 	0 	0 	0 	0 	0 	0 	0 	0 	0 	0 	0 	0 	0 	0 	0 	0 	0 	0 	0 	0 	0 	0 	0 	0 	0 	
dq_lat_table:0 	0 	0 	0 	0 	0 	0 	0 	0 	0 	0 	0 	0 	0 	0 	0 	0 	0 	0 	0 	0 	0 	0 	0 	0 	0 	0 	0 	0 	0 	0 	0 	
mf_lat_table:0 	0 	0 	0 	0 	0 	0 	279 	507 	0 	0 	0 	0 	0 	0 	0 	0 	0 	0 	0 	0 	0 	0 	0 	0 	0 	0 	0 	0 	0 	0 	0 	
icnt2mem_lat_table:0 	0 	0 	0 	0 	327 	324 	135 	0 	0 	0 	0 	0 	0 	0 	0 	0 	0 	0 	0 	0 	0 	0 	0 	
icnt2sh_lat_table:0 	786 	0 	0 	0 	0 	0 	0 	0 	0 	0 	0 	0 	0 	0 	0 	0 	0 	0 	0 	0 	0 	0 	0 	
mf_lat_pw_table:0 	0 	0 	0 	0 	0 	0 	0 	0 	0 	0 	0 	0 	0 	0 	0 	0 	0 	0 	0 	0 	0 	0 	0 	0 	0 	0 	0 	0 	0 	0 	0 	
maximum concurrent accesses to same row:
dram[0]:         0         0         0         0         0         0         0         0         0         0         0         0         0         0         0         0 
dram[1]:         0         0         0         0         0         0         0         0         0         0         0         0         0         0         0         0 
dram[2]:         0         0         0         0         0         0         0         0         0         0         0         0         0         0         0         0 
dram[3]:         0         0         0         0         0         0         0         0         0         0         0         0         0         0         0         0 
dram[4]:         0         0         0         0         0         0         0         0         0         0         0         0         0         0         0         0 
dram[5]:         0         0         0         0         0         0         0         0         0         0         0         0         0         0         0         0 
dram[6]:         0         0         0         0         0         0         0         0         0         0         0         0         0         0         0         0 
dram[7]:         0         0         0         0         0         0         0         0         0         0         0         0         0         0         0         0 
dram[8]:         0         0         0         0         0         0         0         0         0         0         0         0         0         0         0         0 
dram[9]:         0         0         0         0         0         0         0         0         0         0         0         0         0         0         0         0 
dram[10]:         0         0         0         0         0         0         0         0         0         0         0         0         0         0         0         0 
dram[11]:         0         0         0         0         0         0         0         0         0         0         0         0         0         0         0         0 
maximum service time to same row:
dram[0]:         0         0         0         0         0         0         0         0         0         0         0         0         0         0         0         0 
dram[1]:         0         0         0         0         0         0         0         0         0         0         0         0         0         0         0         0 
dram[2]:         0         0         0         0         0         0         0         0         0         0         0         0         0         0         0         0 
dram[3]:         0         0         0         0         0         0         0         0         0         0         0         0         0         0         0         0 
dram[4]:         0         0         0         0         0         0         0         0         0         0         0         0         0         0         0         0 
dram[5]:         0         0         0         0         0         0         0         0         0         0         0         0         0         0         0         0 
dram[6]:         0         0         0         0         0         0         0         0         0         0         0         0         0         0         0         0 
dram[7]:         0         0         0         0         0         0         0         0         0         0         0         0         0         0         0         0 
dram[8]:         0         0         0         0         0         0         0         0         0         0         0         0         0         0         0         0 
dram[9]:         0         0         0         0         0         0         0         0         0         0         0         0         0         0         0         0 
dram[10]:         0         0         0         0         0         0         0         0         0         0         0         0         0         0         0         0 
dram[11]:         0         0         0         0         0         0         0         0         0         0         0         0         0         0         0         0 
average row accesses per activate:
dram[0]:      -nan      -nan      -nan      -nan      -nan      -nan      -nan      -nan      -nan      -nan      -nan      -nan      -nan      -nan      -nan      -nan 
dram[1]:      -nan      -nan      -nan      -nan      -nan      -nan      -nan      -nan      -nan      -nan      -nan      -nan      -nan      -nan      -nan      -nan 
dram[2]:      -nan      -nan      -nan      -nan      -nan      -nan      -nan      -nan      -nan      -nan      -nan      -nan      -nan      -nan      -nan      -nan 
dram[3]:      -nan      -nan      -nan      -nan      -nan      -nan      -nan      -nan      -nan      -nan      -nan      -nan      -nan      -nan      -nan      -nan 
dram[4]:      -nan      -nan      -nan      -nan      -nan      -nan      -nan      -nan      -nan      -nan      -nan      -nan      -nan      -nan      -nan      -nan 
dram[5]:      -nan      -nan      -nan      -nan      -nan      -nan      -nan      -nan      -nan      -nan      -nan      -nan      -nan      -nan      -nan      -nan 
dram[6]:      -nan      -nan      -nan      -nan      -nan      -nan      -nan      -nan      -nan      -nan      -nan      -nan      -nan      -nan      -nan      -nan 
dram[7]:      -nan      -nan      -nan      -nan      -nan      -nan      -nan      -nan      -nan      -nan      -nan      -nan      -nan      -nan      -nan      -nan 
dram[8]:      -nan      -nan      -nan      -nan      -nan      -nan      -nan      -nan      -nan      -nan      -nan      -nan      -nan      -nan      -nan      -nan 
dram[9]:      -nan      -nan      -nan      -nan      -nan      -nan      -nan      -nan      -nan      -nan      -nan      -nan      -nan      -nan      -nan      -nan 
dram[10]:      -nan      -nan      -nan      -nan      -nan      -nan      -nan      -nan      -nan      -nan      -nan      -nan      -nan      -nan      -nan      -nan 
dram[11]:      -nan      -nan      -nan      -nan      -nan      -nan      -nan      -nan      -nan      -nan      -nan      -nan      -nan      -nan      -nan      -nan 
average row locality = 0/0 = -nan
number of total memory accesses made:
dram[0]:         0         0         0         0         0         0         0         0         0         0         0         0         0         0         0         0 
dram[1]:         0         0         0         0         0         0         0         0         0         0         0         0         0         0         0         0 
dram[2]:         0         0         0         0         0         0         0         0         0         0         0         0         0         0         0         0 
dram[3]:         0         0         0         0         0         0         0         0         0         0         0         0         0         0         0         0 
dram[4]:         0         0         0         0         0         0         0         0         0         0         0         0         0         0         0         0 
dram[5]:         0         0         0         0         0         0         0         0         0         0         0         0         0         0         0         0 
dram[6]:         0         0         0         0         0         0         0         0         0         0         0         0         0         0         0         0 
dram[7]:         0         0         0         0         0         0         0         0         0         0         0         0         0         0         0         0 
dram[8]:         0         0         0         0         0         0         0         0         0         0         0         0         0         0         0         0 
dram[9]:         0         0         0         0         0         0         0         0         0         0         0         0         0         0         0         0 
dram[10]:         0         0         0         0         0         0         0         0         0         0         0         0         0         0         0         0 
dram[11]:         0         0         0         0         0         0         0         0         0         0         0         0         0         0         0         0 
total accesses: 0
min_bank_accesses = 0!
min_chip_accesses = 0!
number of total read accesses:
dram[0]:         0         0         0         0         0         0         0         0         0         0         0         0         0         0         0         0 
dram[1]:         0         0         0         0         0         0         0         0         0         0         0         0         0         0         0         0 
dram[2]:         0         0         0         0         0         0         0         0         0         0         0         0         0         0         0         0 
dram[3]:         0         0         0         0         0         0         0         0         0         0         0         0         0         0         0         0 
dram[4]:         0         0         0         0         0         0         0         0         0         0         0         0         0         0         0         0 
dram[5]:         0         0         0         0         0         0         0         0         0         0         0         0         0         0         0         0 
dram[6]:         0         0         0         0         0         0         0         0         0         0         0         0         0         0         0         0 
dram[7]:         0         0         0         0         0         0         0         0         0         0         0         0         0         0         0         0 
dram[8]:         0         0         0         0         0         0         0         0         0         0         0         0         0         0         0         0 
dram[9]:         0         0         0         0         0         0         0         0         0         0         0         0         0         0         0         0 
dram[10]:         0         0         0         0         0         0         0         0         0         0         0         0         0         0         0         0 
dram[11]:         0         0         0         0         0         0         0         0         0         0         0         0         0         0         0         0 
total dram reads = 0
min_bank_accesses = 0!
min_chip_accesses = 0!
number of total write accesses:
dram[0]:         0         0         0         0         0         0         0         0         0         0         0         0         0         0         0         0 
dram[1]:         0         0         0         0         0         0         0         0         0         0         0         0         0         0         0         0 
dram[2]:         0         0         0         0         0         0         0         0         0         0         0         0         0         0         0         0 
dram[3]:         0         0         0         0         0         0         0         0         0         0         0         0         0         0         0         0 
dram[4]:         0         0         0         0         0         0         0         0         0         0         0         0         0         0         0         0 
dram[5]:         0         0         0         0         0         0         0         0         0         0         0         0         0         0         0         0 
dram[6]:         0         0         0         0         0         0         0         0         0         0         0         0         0         0         0         0 
dram[7]:         0         0         0         0         0         0         0         0         0         0         0         0         0         0         0         0 
dram[8]:         0         0         0         0         0         0         0         0         0         0         0         0         0         0         0         0 
dram[9]:         0         0         0         0         0         0         0         0         0         0         0         0         0         0         0         0 
dram[10]:         0         0         0         0         0         0         0         0         0         0         0         0         0         0         0         0 
dram[11]:         0         0         0         0         0         0         0         0         0         0         0         0         0         0         0         0 
total dram writes = 0
min_bank_accesses = 0!
min_chip_accesses = 0!
average mf latency per bank:
dram[0]:     none      none      none      none      none      none      none      none      none      none      none      none      none      none      none      none  
dram[1]:     none      none      none      none      none      none      none      none      none      none      none      none      none      none      none      none  
dram[2]:     none      none      none      none      none      none      none      none      none      none      none      none      none      none      none      none  
dram[3]:     none      none      none      none      none      none      none      none      none      none      none      none      none      none      none      none  
dram[4]:     none      none      none      none      none      none      none      none      none      none      none      none      none      none      none      none  
dram[5]:     none      none      none      none      none      none      none      none      none      none      none      none      none      none      none      none  
dram[6]:     none      none      none      none      none      none      none      none      none      none      none      none      none      none      none      none  
dram[7]:     none      none      none      none      none      none      none      none      none      none      none      none      none      none      none      none  
dram[8]:     none      none      none      none      none      none      none      none      none      none      none      none      none      none      none      none  
dram[9]:     none      none      none      none      none      none      none      none      none      none      none      none      none      none      none      none  
dram[10]:     none      none      none      none      none      none      none      none      none      none      none      none      none      none      none      none  
dram[11]:     none      none      none      none      none      none      none      none      none      none      none      none      none      none      none      none  
maximum mf latency per bank:
dram[0]:          0         0         0         0         0         0         0         0         0         0         0         0       342       342         0         0
dram[1]:          0         0         0         0         0         0         0         0         0         0         0         0       342       342         0         0
dram[2]:          0         0         0         0         0         0         0         0         0         0         0         0       337       342         0         0
dram[3]:          0         0         0         0         0         0         0         0         0         0         0         0       342       342         0         0
dram[4]:          0         0         0         0         0         0         0         0         0         0         0         0       342       342         0         0
dram[5]:          0         0         0         0         0         0         0         0         0         0         0         0       342       342         0         0
dram[6]:          0         0         0         0         0         0         0         0         0         0         0         0       337       342         0         0
dram[7]:          0         0         0         0         0         0         0         0         0         0         0         0       342       342         0         0
dram[8]:          0         0         0         0         0         0         0         0         0         0         0         0       342       342         0         0
dram[9]:          0         0         0         0         0         0         0         0         0         0       332       239       342       342         0         0
dram[10]:          0         0         0         0         0         0         0         0         0         0       242       245       337       342         0         0
dram[11]:          0         0         0         0         0         0         0         0         0         0       236       340       342       342         0         0

Number of Memory Banks Accessed per Memory Operation per Warp (from 0):
0	0	0	0	0	0	0	0	0	0	0	0	0	0	0	0	0	0	0	0	0	0	0	0	0	0	0	0	0	0	0	0	0	0	0	0	0	0	0	0	0	0	0	0	0	0	0	0	0	0	0	0	0	0	0	0	0	0	0	0	0	0	0	0	0	0	0	0	0	0	0	0	0	0	0	0	0	0	0	0	0	0	0	0	0	0	0	0	0	0	0	0	0	0	0	0	0	0	0	0	0	0	0	0	0	0	0	0	0	0	0	0	0	0	0	0	0	0	0	0	0	0	0	0	0	0	0	0	0	0	0	0	0	0	0	0	0	0	0	0	0	0	0	0	0	0	0	0	0	0	0	0	0	0	0	0	0	0	0	0	0	0	0	0	0	0	0	0	0	0	0	0	0	0	0	0	0	0	0	0	0	0	0	0	0	0	0	0	0	0	0	0	
Average # of Memory Banks Accessed per Memory Operation per Warp=-nan

position of mrq chosen
0	0	0	0	0	0	0	0	0	0	0	0	0	0	0	0	0	0	0	0	0	0	0	0	0	0	0	0	0	0	0	0	0	0	0	0	0	0	0	0	0	0	0	0	0	0	0	0	0	0	0	0	0	0	0	0	0	0	0	0	0	0	0	0	

average position of mrq chosen = -nan
Memory Partition 0: 
Cache L2_bank_000:
MSHR contents

Cache L2_bank_001:
MSHR contents

In Dram Latency Queue (total = 0): 
DRAM[0]: 16 bks, busW=2 BL=16 CL=24, tRRD=12 tCCD=4, tRCD=24 tRAS=55 tRP=24 tRC=78
n_cmd=14538 n_nop=14538 n_act=0 n_pre=0 n_ref_event=0 n_req=0 n_rd=0 n_rd_L2_A=0 n_write=0 n_wr_bk=0 bw_util=0
n_activity=0 dram_eff=-nan
bk0: 0a 14538i bk1: 0a 14538i bk2: 0a 14538i bk3: 0a 14538i bk4: 0a 14538i bk5: 0a 14538i bk6: 0a 14538i bk7: 0a 14538i bk8: 0a 14538i bk9: 0a 14538i bk10: 0a 14538i bk11: 0a 14538i bk12: 0a 14538i bk13: 0a 14538i bk14: 0a 14538i bk15: 0a 14538i 

------------------------------------------------------------------------

Row_Buffer_Locality = -nan
Row_Buffer_Locality_read = -nan
Row_Buffer_Locality_write = -nan
Bank_Level_Parallism = -nan
Bank_Level_Parallism_Col = -nan
Bank_Level_Parallism_Ready = -nan
write_to_read_ratio_blp_rw_average = -nan
GrpLevelPara = -nan 

BW Util details:
bwutil = 0.000000 
total_CMD = 14538 
util_bw = 0 
Wasted_Col = 0 
Wasted_Row = 0 
Idle = 14538 

BW Util Bottlenecks: 
RCDc_limit = 0 
RCDWRc_limit = 0 
WTRc_limit = 0 
RTWc_limit = 0 
CCDLc_limit = 0 
rwq = 0 
CCDLc_limit_alone = 0 
WTRc_limit_alone = 0 
RTWc_limit_alone = 0 

Commands details: 
total_CMD = 14538 
n_nop = 14538 
Read = 0 
Write = 0 
L2_Alloc = 0 
L2_WB = 0 
n_act = 0 
n_pre = 0 
n_ref = 0 
n_req = 0 
total_req = 0 

Dual Bus Interface Util: 
issued_total_row = 0 
issued_total_col = 0 
Row_Bus_Util =  0.000000 
CoL_Bus_Util = 0.000000 
Either_Row_CoL_Bus_Util = 0.000000 
Issued_on_Two_Bus_Simul_Util = 0.000000 
issued_two_Eff = -nan 
queue_avg = 0.000000 


dram_util_bins: 0 0 0 0 0 0 0 0 0 0
dram_eff_bins: 0 0 0 0 0 0 0 0 0 0
mrqq: max=0 avg=0
Memory Partition 1: 
Cache L2_bank_002:
MSHR contents

Cache L2_bank_003:
MSHR contents

In Dram Latency Queue (total = 0): 
DRAM[1]: 16 bks, busW=2 BL=16 CL=24, tRRD=12 tCCD=4, tRCD=24 tRAS=55 tRP=24 tRC=78
n_cmd=14538 n_nop=14538 n_act=0 n_pre=0 n_ref_event=0 n_req=0 n_rd=0 n_rd_L2_A=0 n_write=0 n_wr_bk=0 bw_util=0
n_activity=0 dram_eff=-nan
bk0: 0a 14538i bk1: 0a 14538i bk2: 0a 14538i bk3: 0a 14538i bk4: 0a 14538i bk5: 0a 14538i bk6: 0a 14538i bk7: 0a 14538i bk8: 0a 14538i bk9: 0a 14538i bk10: 0a 14538i bk11: 0a 14538i bk12: 0a 14538i bk13: 0a 14538i bk14: 0a 14538i bk15: 0a 14538i 

------------------------------------------------------------------------

Row_Buffer_Locality = -nan
Row_Buffer_Locality_read = -nan
Row_Buffer_Locality_write = -nan
Bank_Level_Parallism = -nan
Bank_Level_Parallism_Col = 1.000000
Bank_Level_Parallism_Ready = -nan
write_to_read_ratio_blp_rw_average = 0.000000
GrpLevelPara = 0.000000 

BW Util details:
bwutil = 0.000000 
total_CMD = 14538 
util_bw = 0 
Wasted_Col = 0 
Wasted_Row = 0 
Idle = 14538 

BW Util Bottlenecks: 
RCDc_limit = 0 
RCDWRc_limit = 0 
WTRc_limit = 0 
RTWc_limit = 0 
CCDLc_limit = 0 
rwq = 0 
CCDLc_limit_alone = 0 
WTRc_limit_alone = 0 
RTWc_limit_alone = 0 

Commands details: 
total_CMD = 14538 
n_nop = 14538 
Read = 0 
Write = 0 
L2_Alloc = 0 
L2_WB = 0 
n_act = 0 
n_pre = 0 
n_ref = 0 
n_req = 0 
total_req = 0 

Dual Bus Interface Util: 
issued_total_row = 0 
issued_total_col = 0 
Row_Bus_Util =  0.000000 
CoL_Bus_Util = 0.000000 
Either_Row_CoL_Bus_Util = 0.000000 
Issued_on_Two_Bus_Simul_Util = 0.000000 
issued_two_Eff = -nan 
queue_avg = 0.000000 


dram_util_bins: 0 0 0 0 0 0 0 0 0 0
dram_eff_bins: 0 0 0 0 0 0 0 0 0 0
mrqq: max=0 avg=0
Memory Partition 2: 
Cache L2_bank_004:
MSHR contents

Cache L2_bank_005:
MSHR contents

In Dram Latency Queue (total = 0): 
DRAM[2]: 16 bks, busW=2 BL=16 CL=24, tRRD=12 tCCD=4, tRCD=24 tRAS=55 tRP=24 tRC=78
n_cmd=14538 n_nop=14538 n_act=0 n_pre=0 n_ref_event=0 n_req=0 n_rd=0 n_rd_L2_A=0 n_write=0 n_wr_bk=0 bw_util=0
n_activity=0 dram_eff=-nan
bk0: 0a 14538i bk1: 0a 14538i bk2: 0a 14538i bk3: 0a 14538i bk4: 0a 14538i bk5: 0a 14538i bk6: 0a 14538i bk7: 0a 14538i bk8: 0a 14538i bk9: 0a 14538i bk10: 0a 14538i bk11: 0a 14538i bk12: 0a 14538i bk13: 0a 14538i bk14: 0a 14538i bk15: 0a 14538i 

------------------------------------------------------------------------

Row_Buffer_Locality = -nan
Row_Buffer_Locality_read = -nan
Row_Buffer_Locality_write = -nan
Bank_Level_Parallism = -nan
Bank_Level_Parallism_Col = -nan
Bank_Level_Parallism_Ready = -nan
write_to_read_ratio_blp_rw_average = -nan
GrpLevelPara = -nan 

BW Util details:
bwutil = 0.000000 
total_CMD = 14538 
util_bw = 0 
Wasted_Col = 0 
Wasted_Row = 0 
Idle = 14538 

BW Util Bottlenecks: 
RCDc_limit = 0 
RCDWRc_limit = 0 
WTRc_limit = 0 
RTWc_limit = 0 
CCDLc_limit = 0 
rwq = 0 
CCDLc_limit_alone = 0 
WTRc_limit_alone = 0 
RTWc_limit_alone = 0 

Commands details: 
total_CMD = 14538 
n_nop = 14538 
Read = 0 
Write = 0 
L2_Alloc = 0 
L2_WB = 0 
n_act = 0 
n_pre = 0 
n_ref = 0 
n_req = 0 
total_req = 0 

Dual Bus Interface Util: 
issued_total_row = 0 
issued_total_col = 0 
Row_Bus_Util =  0.000000 
CoL_Bus_Util = 0.000000 
Either_Row_CoL_Bus_Util = 0.000000 
Issued_on_Two_Bus_Simul_Util = 0.000000 
issued_two_Eff = -nan 
queue_avg = 0.000000 


dram_util_bins: 0 0 0 0 0 0 0 0 0 0
dram_eff_bins: 0 0 0 0 0 0 0 0 0 0
mrqq: max=0 avg=0
Memory Partition 3: 
Cache L2_bank_006:
MSHR contents

Cache L2_bank_007:
MSHR contents

In Dram Latency Queue (total = 0): 
DRAM[3]: 16 bks, busW=2 BL=16 CL=24, tRRD=12 tCCD=4, tRCD=24 tRAS=55 tRP=24 tRC=78
n_cmd=14538 n_nop=14538 n_act=0 n_pre=0 n_ref_event=0 n_req=0 n_rd=0 n_rd_L2_A=0 n_write=0 n_wr_bk=0 bw_util=0
n_activity=0 dram_eff=-nan
bk0: 0a 14538i bk1: 0a 14538i bk2: 0a 14538i bk3: 0a 14538i bk4: 0a 14538i bk5: 0a 14538i bk6: 0a 14538i bk7: 0a 14538i bk8: 0a 14538i bk9: 0a 14538i bk10: 0a 14538i bk11: 0a 14538i bk12: 0a 14538i bk13: 0a 14538i bk14: 0a 14538i bk15: 0a 14538i 

------------------------------------------------------------------------

Row_Buffer_Locality = -nan
Row_Buffer_Locality_read = -nan
Row_Buffer_Locality_write = -nan
Bank_Level_Parallism = -nan
Bank_Level_Parallism_Col = -nan
Bank_Level_Parallism_Ready = -nan
write_to_read_ratio_blp_rw_average = -nan
GrpLevelPara = -nan 

BW Util details:
bwutil = 0.000000 
total_CMD = 14538 
util_bw = 0 
Wasted_Col = 0 
Wasted_Row = 0 
Idle = 14538 

BW Util Bottlenecks: 
RCDc_limit = 0 
RCDWRc_limit = 0 
WTRc_limit = 0 
RTWc_limit = 0 
CCDLc_limit = 0 
rwq = 0 
CCDLc_limit_alone = 0 
WTRc_limit_alone = 0 
RTWc_limit_alone = 0 

Commands details: 
total_CMD = 14538 
n_nop = 14538 
Read = 0 
Write = 0 
L2_Alloc = 0 
L2_WB = 0 
n_act = 0 
n_pre = 0 
n_ref = 0 
n_req = 0 
total_req = 0 

Dual Bus Interface Util: 
issued_total_row = 0 
issued_total_col = 0 
Row_Bus_Util =  0.000000 
CoL_Bus_Util = 0.000000 
Either_Row_CoL_Bus_Util = 0.000000 
Issued_on_Two_Bus_Simul_Util = 0.000000 
issued_two_Eff = -nan 
queue_avg = 0.000000 


dram_util_bins: 0 0 0 0 0 0 0 0 0 0
dram_eff_bins: 0 0 0 0 0 0 0 0 0 0
mrqq: max=0 avg=0
Memory Partition 4: 
Cache L2_bank_008:
MSHR contents

Cache L2_bank_009:
MSHR contents

In Dram Latency Queue (total = 0): 
DRAM[4]: 16 bks, busW=2 BL=16 CL=24, tRRD=12 tCCD=4, tRCD=24 tRAS=55 tRP=24 tRC=78
n_cmd=14538 n_nop=14538 n_act=0 n_pre=0 n_ref_event=0 n_req=0 n_rd=0 n_rd_L2_A=0 n_write=0 n_wr_bk=0 bw_util=0
n_activity=0 dram_eff=-nan
[...]

------------------------------------------------------------------------

Row_Buffer_Locality = 0.150275
Row_Buffer_Locality_read = 0.150616
Row_Buffer_Locality_write = 0.042017
Bank_Level_Parallism = 1.252874
Bank_Level_Parallism_Col = 1.090537
Bank_Level_Parallism_Ready = 1.003685
write_to_read_ratio_blp_rw_average = 0.006342
GrpLevelPara = 1.075477 

BW Util details:
bwutil = 0.009910 
total_CMD = 15433613 
util_bw = 152952 
Wasted_Col = 687361 
Wasted_Row = 577944 
Idle = 14015356 

BW Util Bottlenecks: 
RCDc_limit = 735318 
RCDWRc_limit = 1373 
WTRc_limit = 1358 
RTWc_limit = 2047 
CCDLc_limit = 6744 
rwq = 0 
CCDLc_limit_alone = 6617 
WTRc_limit_alone = 1291 
RTWc_limit_alone = 1987 

Commands details: 
total_CMD = 15433613 
n_nop = 15331439 
Read = 37765 
Write = 0 
L2_Alloc = 0 
L2_WB = 473 
n_act = 32193 
n_pre = 32177 
n_ref = 0 
n_req = 37884 
total_req = 38238 

Dual Bus Interface Util: 
issued_total_row = 64370 
issued_total_col = 38238 
Row_Bus_Util =  0.004171 
CoL_Bus_Util = 0.002478 
Either_Row_CoL_Bus_Util = 0.006620 
Issued_on_Two_Bus_Simul_Util = 0.000028 
issued_two_Eff = 0.004248 
queue_avg = 0.015003 


dram_util_bins: 0 0 0 0 0 0 0 0 0 0
dram_eff_bins: 0 0 0 0 0 0 0 0 0 0
mrqq: max=64 avg=0.0150034
Memory Partition 7: 
Cache L2_bank_014:
MSHR contents

Cache L2_bank_015:
MSHR contents

In Dram Latency Queue (total = 0): 
DRAM[7]: 16 bks, busW=2 BL=16 CL=24, tRRD=12 tCCD=4, tRCD=24 tRAS=55 tRP=24 tRC=78
n_cmd=15433613 n_nop=15330338 n_act=32680 n_pre=32664 n_ref_event=0 n_req=38139 n_rd=38023 n_rd_L2_A=0 n_write=0 n_wr_bk=450 bw_util=0.009971
n_activity=2408100 dram_eff=0.06391
bk0: 2342a 15331683i bk1: 2337a 15331621i bk2: 2387a 15325594i bk3: 2394a 15324762i bk4: 2397a 15326860i bk5: 2408a 15325255i bk6: 2435a 15322770i bk7: 2440a 15320541i bk8: 2395a 15326063i bk9: 2378a 15325708i bk10: 2380a 15326977i bk11: 2390a 15326231i bk12: 2359a 15327385i bk13: 2306a 15329505i bk14: 2345a 15330490i bk15: 2330a 15330631i 

------------------------------------------------------------------------

Row_Buffer_Locality = 0.143187
Row_Buffer_Locality_read = 0.143518
Row_Buffer_Locality_write = 0.034483
Bank_Level_Parallism = 1.260341
Bank_Level_Parallism_Col = 1.091587
Bank_Level_Parallism_Ready = 1.003404
write_to_read_ratio_blp_rw_average = 0.006073
GrpLevelPara = 1.074941 

BW Util details:
bwutil = 0.009971 
total_CMD = 15433613 
util_bw = 153892 
Wasted_Col = 696153 
Wasted_Row = 584247 
Idle = 13999321 

BW Util Bottlenecks: 
RCDc_limit = 745928 
RCDWRc_limit = 1371 
WTRc_limit = 1164 
RTWc_limit = 1855 
CCDLc_limit = 7016 
rwq = 0 
CCDLc_limit_alone = 6866 
WTRc_limit_alone = 1090 
RTWc_limit_alone = 1779 

Commands details: 
total_CMD = 15433613 
n_nop = 15330338 
Read = 38023 
Write = 0 
L2_Alloc = 0 
L2_WB = 450 
n_act = 32680 
n_pre = 32664 
n_ref = 0 
n_req = 38139 
total_req = 38473 

Dual Bus Interface Util: 
issued_total_row = 65344 
issued_total_col = 38473 
Row_Bus_Util =  0.004234 
CoL_Bus_Util = 0.002493 
Either_Row_CoL_Bus_Util = 0.006692 
Issued_on_Two_Bus_Simul_Util = 0.000035 
issued_two_Eff = 0.005248 
queue_avg = 0.016590 


dram_util_bins: 0 0 0 0 0 0 0 0 0 0
dram_eff_bins: 0 0 0 0 0 0 0 0 0 0
mrqq: max=64 avg=0.0165895
Memory Partition 8: 
Cache L2_bank_016:
MSHR contents

Cache L2_bank_017:
MSHR contents

In Dram Latency Queue (total = 0): 
DRAM[8]: 16 bks, busW=2 BL=16 CL=24, tRRD=12 tCCD=4, tRCD=24 tRAS=55 tRP=24 tRC=78
n_cmd=15433613 n_nop=15330215 n_act=32726 n_pre=32710 n_ref_event=0 n_req=38112 n_rd=37993 n_rd_L2_A=0 n_write=0 n_wr_bk=467 bw_util=0.009968
n_activity=2404573 dram_eff=0.06398
bk0: 2368a 15332113i bk1: 2370a 15331023i bk2: 2416a 15323688i bk3: 2377a 15324577i bk4: 2436a 15325280i bk5: 2360a 15327208i bk6: 2454a 15320985i bk7: 2389a 15323626i bk8: 2413a 15324839i bk9: 2365a 15327869i bk10: 2418a 15326337i bk11: 2418a 15324380i bk12: 2358a 15327452i bk13: 2269a 15332294i bk14: 2348a 15326837i bk15: 2234a 15332596i 

------------------------------------------------------------------------

Row_Buffer_Locality = 0.141373
Row_Buffer_Locality_read = 0.141631
Row_Buffer_Locality_write = 0.058824
Bank_Level_Parallism = 1.262297
Bank_Level_Parallism_Col = 1.091832
Bank_Level_Parallism_Ready = 1.003325
write_to_read_ratio_blp_rw_average = 0.006230
GrpLevelPara = 1.075971 

BW Util details:
bwutil = 0.009968 
total_CMD = 15433613 
util_bw = 153840 
Wasted_Col = 696681 
Wasted_Row = 582433 
Idle = 14000659 

BW Util Bottlenecks: 
RCDc_limit = 747125 
RCDWRc_limit = 1374 
WTRc_limit = 1210 
RTWc_limit = 1796 
CCDLc_limit = 6646 
rwq = 0 
CCDLc_limit_alone = 6498 
WTRc_limit_alone = 1150 
RTWc_limit_alone = 1708 

Commands details: 
total_CMD = 15433613 
n_nop = 15330215 
Read = 37993 
Write = 0 
L2_Alloc = 0 
L2_WB = 467 
n_act = 32726 
n_pre = 32710 
n_ref = 0 
n_req = 38112 
total_req = 38460 

Dual Bus Interface Util: 
issued_total_row = 65436 
issued_total_col = 38460 
Row_Bus_Util =  0.004240 
CoL_Bus_Util = 0.002492 
Either_Row_CoL_Bus_Util = 0.006700 
Issued_on_Two_Bus_Simul_Util = 0.000032 
issued_two_Eff = 0.004816 
queue_avg = 0.016558 


dram_util_bins: 0 0 0 0 0 0 0 0 0 0
dram_eff_bins: 0 0 0 0 0 0 0 0 0 0
mrqq: max=64 avg=0.0165581
Memory Partition 9: 
Cache L2_bank_018:
MSHR contents

Cache L2_bank_019:
MSHR contents

In Dram Latency Queue (total = 0): 
DRAM[9]: 16 bks, busW=2 BL=16 CL=24, tRRD=12 tCCD=4, tRCD=24 tRAS=55 tRP=24 tRC=78
n_cmd=15433613 n_nop=15330204 n_act=32668 n_pre=32652 n_ref_event=0 n_req=38266 n_rd=38142 n_rd_L2_A=0 n_write=0 n_wr_bk=493 bw_util=0.01001
n_activity=2398850 dram_eff=0.06442
bk0: 2374a 15332207i bk1: 2379a 15331911i bk2: 2383a 15325068i bk3: 2317a 15327964i bk4: 2455a 15322938i bk5: 2371a 15328133i bk6: 2462a 15322245i bk7: 2433a 15324339i bk8: 2373a 15326245i bk9: 2374a 15326926i bk10: 2429a 15323865i bk11: 2410a 15325532i bk12: 2364a 15327456i bk13: 2358a 15326863i bk14: 2332a 15328789i bk15: 2328a 15330351i 

------------------------------------------------------------------------

Row_Buffer_Locality = 0.146344
Row_Buffer_Locality_read = 0.146636
Row_Buffer_Locality_write = 0.056452
Bank_Level_Parallism = 1.264513
Bank_Level_Parallism_Col = 1.092774
Bank_Level_Parallism_Ready = 1.002770
write_to_read_ratio_blp_rw_average = 0.006345
GrpLevelPara = 1.077091 

BW Util details:
bwutil = 0.010013 
total_CMD = 15433613 
util_bw = 154540 
Wasted_Col = 695030 
Wasted_Row = 582128 
Idle = 14001915 

BW Util Bottlenecks: 
RCDc_limit = 745164 
RCDWRc_limit = 1437 
WTRc_limit = 1307 
RTWc_limit = 1901 
CCDLc_limit = 6872 
rwq = 0 
CCDLc_limit_alone = 6733 
WTRc_limit_alone = 1240 
RTWc_limit_alone = 1829 

Commands details: 
total_CMD = 15433613 
n_nop = 15330204 
Read = 38142 
Write = 0 
L2_Alloc = 0 
L2_WB = 493 
n_act = 32668 
n_pre = 32652 
n_ref = 0 
n_req = 38266 
total_req = 38635 

Dual Bus Interface Util: 
issued_total_row = 65320 
issued_total_col = 38635 
Row_Bus_Util =  0.004232 
CoL_Bus_Util = 0.002503 
Either_Row_CoL_Bus_Util = 0.006700 
Issued_on_Two_Bus_Simul_Util = 0.000035 
issued_two_Eff = 0.005280 
queue_avg = 0.017488 


dram_util_bins: 0 0 0 0 0 0 0 0 0 0
dram_eff_bins: 0 0 0 0 0 0 0 0 0 0
mrqq: max=64 avg=0.0174881
Memory Partition 10: 
Cache L2_bank_020:
MSHR contents

Cache L2_bank_021:
MSHR contents

In Dram Latency Queue (total = 0): 
DRAM[10]: 16 bks, busW=2 BL=16 CL=24, tRRD=12 tCCD=4, tRCD=24 tRAS=55 tRP=24 tRC=78
n_cmd=15433613 n_nop=15330556 n_act=32587 n_pre=32571 n_ref_event=0 n_req=38047 n_rd=37923 n_rd_L2_A=0 n_write=0 n_wr_bk=472 bw_util=0.009951
n_activity=2398966 dram_eff=0.06402
bk0: 2405a 15329695i bk1: 2389a 15329293i bk2: 2403a 15323403i bk3: 2349a 15326957i bk4: 2387a 15325976i bk5: 2344a 15330166i bk6: 2413a 15325542i bk7: 2432a 15326404i bk8: 2394a 15324818i bk9: 2354a 15327104i bk10: 2419a 15324068i bk11: 2389a 15325916i bk12: 2325a 15330241i bk13: 2316a 15329533i bk14: 2305a 15332785i bk15: 2299a 15331225i 

------------------------------------------------------------------------

Row_Buffer_Locality = 0.143559
Row_Buffer_Locality_read = 0.143870
Row_Buffer_Locality_write = 0.048387
Bank_Level_Parallism = 1.256762
Bank_Level_Parallism_Col = 1.091786
Bank_Level_Parallism_Ready = 1.002428
write_to_read_ratio_blp_rw_average = 0.006780
GrpLevelPara = 1.075522 

BW Util details:
bwutil = 0.009951 
total_CMD = 15433613 
util_bw = 153580 
Wasted_Col = 694956 
Wasted_Row = 581284 
Idle = 14003793 

BW Util Bottlenecks: 
RCDc_limit = 744070 
RCDWRc_limit = 1469 
WTRc_limit = 1255 
RTWc_limit = 2394 
CCDLc_limit = 6797 
rwq = 0 
CCDLc_limit_alone = 6583 
WTRc_limit_alone = 1186 
RTWc_limit_alone = 2249 

Commands details: 
total_CMD = 15433613 
n_nop = 15330556 
Read = 37923 
Write = 0 
L2_Alloc = 0 
L2_WB = 472 
n_act = 32587 
n_pre = 32571 
n_ref = 0 
n_req = 38047 
total_req = 38395 

Dual Bus Interface Util: 
issued_total_row = 65158 
issued_total_col = 38395 
Row_Bus_Util =  0.004222 
CoL_Bus_Util = 0.002488 
Either_Row_CoL_Bus_Util = 0.006677 
Issued_on_Two_Bus_Simul_Util = 0.000032 
issued_two_Eff = 0.004813 
queue_avg = 0.015346 


dram_util_bins: 0 0 0 0 0 0 0 0 0 0
dram_eff_bins: 0 0 0 0 0 0 0 0 0 0
mrqq: max=64 avg=0.0153459
Memory Partition 11: 
Cache L2_bank_022:
MSHR contents

Cache L2_bank_023:
MSHR contents

In Dram Latency Queue (total = 0): 
DRAM[11]: 16 bks, busW=2 BL=16 CL=24, tRRD=12 tCCD=4, tRCD=24 tRAS=55 tRP=24 tRC=78
n_cmd=15433613 n_nop=15330144 n_act=32727 n_pre=32711 n_ref_event=0 n_req=38119 n_rd=37995 n_rd_L2_A=0 n_write=0 n_wr_bk=487 bw_util=0.009974
n_activity=2406983 dram_eff=0.06395
bk0: 2360a 15327893i bk1: 2418a 15325396i bk2: 2363a 15324441i bk3: 2383a 15325414i bk4: 2387a 15326378i bk5: 2390a 15325796i bk6: 2431a 15324477i bk7: 2393a 15326163i bk8: 2399a 15323473i bk9: 2386a 15325731i bk10: 2389a 15325157i bk11: 2423a 15325458i bk12: 2309a 15331191i bk13: 2333a 15328698i bk14: 2287a 15332040i bk15: 2344a 15329689i 

------------------------------------------------------------------------

Row_Buffer_Locality = 0.141504
Row_Buffer_Locality_read = 0.141861
Row_Buffer_Locality_write = 0.032258
Bank_Level_Parallism = 1.263072
Bank_Level_Parallism_Col = 1.091554
Bank_Level_Parallism_Ready = 1.003064
write_to_read_ratio_blp_rw_average = 0.006453
GrpLevelPara = 1.076005 

BW Util details:
bwutil = 0.009974 
total_CMD = 15433613 
util_bw = 153928 
Wasted_Col = 697206 
Wasted_Row = 584029 
Idle = 13998450 

BW Util Bottlenecks: 
RCDc_limit = 746959 
RCDWRc_limit = 1456 
WTRc_limit = 1265 
RTWc_limit = 1956 
CCDLc_limit = 6822 
rwq = 0 
CCDLc_limit_alone = 6691 
WTRc_limit_alone = 1211 
RTWc_limit_alone = 1879 

Commands details: 
total_CMD = 15433613 
n_nop = 15330144 
Read = 37995 
Write = 0 
L2_Alloc = 0 
L2_WB = 487 
n_act = 32727 
n_pre = 32711 
n_ref = 0 
n_req = 38119 
total_req = 38482 

Dual Bus Interface Util: 
issued_total_row = 65438 
issued_total_col = 38482 
Row_Bus_Util =  0.004240 
CoL_Bus_Util = 0.002493 
Either_Row_CoL_Bus_Util = 0.006704 
Issued_on_Two_Bus_Simul_Util = 0.000029 
issued_two_Eff = 0.004359 
queue_avg = 0.017622 


dram_util_bins: 0 0 0 0 0 0 0 0 0 0
dram_eff_bins: 0 0 0 0 0 0 0 0 0 0
mrqq: max=64 avg=0.017622

========= L2 cache stats =========
L2_cache_bank[0]: Access = 967863, Miss = 18915, Miss_rate = 0.020, Pending_hits = 17, Reservation_fails = 98
L2_cache_bank[1]: Access = 144377, Miss = 19150, Miss_rate = 0.133, Pending_hits = 1, Reservation_fails = 0
L2_cache_bank[2]: Access = 141380, Miss = 18937, Miss_rate = 0.134, Pending_hits = 6, Reservation_fails = 164
L2_cache_bank[3]: Access = 143278, Miss = 19158, Miss_rate = 0.134, Pending_hits = 2, Reservation_fails = 0
L2_cache_bank[4]: Access = 197891, Miss = 19083, Miss_rate = 0.096, Pending_hits = 0, Reservation_fails = 0
L2_cache_bank[5]: Access = 218691, Miss = 18983, Miss_rate = 0.087, Pending_hits = 0, Reservation_fails = 0
L2_cache_bank[6]: Access = 177779, Miss = 18990, Miss_rate = 0.107, Pending_hits = 0, Reservation_fails = 0
L2_cache_bank[7]: Access = 188727, Miss = 19223, Miss_rate = 0.102, Pending_hits = 0, Reservation_fails = 0
L2_cache_bank[8]: Access = 198425, Miss = 18934, Miss_rate = 0.095, Pending_hits = 13, Reservation_fails = 0
L2_cache_bank[9]: Access = 193399, Miss = 19083, Miss_rate = 0.099, Pending_hits = 0, Reservation_fails = 0
L2_cache_bank[10]: Access = 168730, Miss = 19033, Miss_rate = 0.113, Pending_hits = 0, Reservation_fails = 0
L2_cache_bank[11]: Access = 195994, Miss = 19146, Miss_rate = 0.098, Pending_hits = 0, Reservation_fails = 0
L2_cache_bank[12]: Access = 162084, Miss = 19157, Miss_rate = 0.118, Pending_hits = 0, Reservation_fails = 0
L2_cache_bank[13]: Access = 160636, Miss = 18952, Miss_rate = 0.118, Pending_hits = 0, Reservation_fails = 0
L2_cache_bank[14]: Access = 186791, Miss = 19193, Miss_rate = 0.103, Pending_hits = 0, Reservation_fails = 0
L2_cache_bank[15]: Access = 172564, Miss = 19139, Miss_rate = 0.111, Pending_hits = 0, Reservation_fails = 0
L2_cache_bank[16]: Access = 179596, Miss = 19377, Miss_rate = 0.108, Pending_hits = 14, Reservation_fails = 0
L2_cache_bank[17]: Access = 177656, Miss = 18946, Miss_rate = 0.107, Pending_hits = 0, Reservation_fails = 0
L2_cache_bank[18]: Access = 194498, Miss = 19340, Miss_rate = 0.099, Pending_hits = 0, Reservation_fails = 0
L2_cache_bank[19]: Access = 185047, Miss = 19138, Miss_rate = 0.103, Pending_hits = 3, Reservation_fails = 0
L2_cache_bank[20]: Access = 187315, Miss = 19217, Miss_rate = 0.103, Pending_hits = 0, Reservation_fails = 0
L2_cache_bank[21]: Access = 191316, Miss = 19032, Miss_rate = 0.099, Pending_hits = 1, Reservation_fails = 0
L2_cache_bank[22]: Access = 211832, Miss = 19093, Miss_rate = 0.090, Pending_hits = 1, Reservation_fails = 0
L2_cache_bank[23]: Access = 192561, Miss = 19238, Miss_rate = 0.100, Pending_hits = 1, Reservation_fails = 0
L2_total_cache_accesses = 5138430
L2_total_cache_misses = 458457
L2_total_cache_miss_rate = 0.0892
L2_total_cache_pending_hits = 59
L2_total_cache_reservation_fails = 262
L2_total_cache_breakdown:
	L2_cache_stats_breakdown[GLOBAL_ACC_R][HIT] = 3237386
	L2_cache_stats_breakdown[GLOBAL_ACC_R][HIT_RESERVED] = 59
	L2_cache_stats_breakdown[GLOBAL_ACC_R][MISS] = 118705
	L2_cache_stats_breakdown[GLOBAL_ACC_R][RESERVATION_FAIL] = 262
	L2_cache_stats_breakdown[GLOBAL_ACC_R][SECTOR_MISS] = 335800
	L2_cache_stats_breakdown[GLOBAL_ACC_R][MSHR_HIT] = 59
	L2_cache_stats_breakdown[LOCAL_ACC_R][HIT] = 0
	L2_cache_stats_breakdown[LOCAL_ACC_R][HIT_RESERVED] = 0
	L2_cache_stats_breakdown[LOCAL_ACC_R][MISS] = 0
	L2_cache_stats_breakdown[LOCAL_ACC_R][RESERVATION_FAIL] = 0
	L2_cache_stats_breakdown[LOCAL_ACC_R][SECTOR_MISS] = 0
	L2_cache_stats_breakdown[LOCAL_ACC_R][MSHR_HIT] = 0
	L2_cache_stats_breakdown[CONST_ACC_R][HIT] = 0
	L2_cache_stats_breakdown[CONST_ACC_R][HIT_RESERVED] = 0
	L2_cache_stats_breakdown[CONST_ACC_R][MISS] = 0
	L2_cache_stats_breakdown[CONST_ACC_R][RESERVATION_FAIL] = 0
	L2_cache_stats_breakdown[CONST_ACC_R][SECTOR_MISS] = 0
	L2_cache_stats_breakdown[CONST_ACC_R][MSHR_HIT] = 0
	L2_cache_stats_breakdown[TEXTURE_ACC_R][HIT] = 0
	L2_cache_stats_breakdown[TEXTURE_ACC_R][HIT_RESERVED] = 0
	L2_cache_stats_breakdown[TEXTURE_ACC_R][MISS] = 0
	L2_cache_stats_breakdown[TEXTURE_ACC_R][RESERVATION_FAIL] = 0
	L2_cache_stats_breakdown[TEXTURE_ACC_R][SECTOR_MISS] = 0
	L2_cache_stats_breakdown[TEXTURE_ACC_R][MSHR_HIT] = 0
	L2_cache_stats_breakdown[GLOBAL_ACC_W][HIT] = 1442528
	L2_cache_stats_breakdown[GLOBAL_ACC_W][HIT_RESERVED] = 0
	L2_cache_stats_breakdown[GLOBAL_ACC_W][MISS] = 993
	L2_cache_stats_breakdown[GLOBAL_ACC_W][RESERVATION_FAIL] = 0
	L2_cache_stats_breakdown[GLOBAL_ACC_W][SECTOR_MISS] = 2959
	L2_cache_stats_breakdown[GLOBAL_ACC_W][MSHR_HIT] = 0
	L2_cache_stats_breakdown[LOCAL_ACC_W][HIT] = 0
	L2_cache_stats_breakdown[LOCAL_ACC_W][HIT_RESERVED] = 0
	L2_cache_stats_breakdown[LOCAL_ACC_W][MISS] = 0
	L2_cache_stats_breakdown[LOCAL_ACC_W][RESERVATION_FAIL] = 0
	L2_cache_stats_breakdown[LOCAL_ACC_W][SECTOR_MISS] = 0
	L2_cache_stats_breakdown[LOCAL_ACC_W][MSHR_HIT] = 0
	L2_cache_stats_breakdown[L1_WRBK_ACC][HIT] = 0
	L2_cache_stats_breakdown[L1_WRBK_ACC][HIT_RESERVED] = 0
	L2_cache_stats_breakdown[L1_WRBK_ACC][MISS] = 0
	L2_cache_stats_breakdown[L1_WRBK_ACC][RESERVATION_FAIL] = 0
	L2_cache_stats_breakdown[L1_WRBK_ACC][SECTOR_MISS] = 0
	L2_cache_stats_breakdown[L1_WRBK_ACC][MSHR_HIT] = 0
	L2_cache_stats_breakdown[L2_WRBK_ACC][HIT] = 0
	L2_cache_stats_breakdown[L2_WRBK_ACC][HIT_RESERVED] = 0
	L2_cache_stats_breakdown[L2_WRBK_ACC][MISS] = 0
	L2_cache_stats_breakdown[L2_WRBK_ACC][RESERVATION_FAIL] = 0
	L2_cache_stats_breakdown[L2_WRBK_ACC][SECTOR_MISS] = 0
	L2_cache_stats_breakdown[L2_WRBK_ACC][MSHR_HIT] = 0
	L2_cache_stats_breakdown[INST_ACC_R][HIT] = 0
	L2_cache_stats_breakdown[INST_ACC_R][HIT_RESERVED] = 0
	L2_cache_stats_breakdown[INST_ACC_R][MISS] = 0
	L2_cache_stats_breakdown[INST_ACC_R][RESERVATION_FAIL] = 0
	L2_cache_stats_breakdown[INST_ACC_R][SECTOR_MISS] = 0
	L2_cache_stats_breakdown[INST_ACC_R][MSHR_HIT] = 0
	L2_cache_stats_breakdown[L1_WR_ALLOC_R][HIT] = 0
	L2_cache_stats_breakdown[L1_WR_ALLOC_R][HIT_RESERVED] = 0
	L2_cache_stats_breakdown[L1_WR_ALLOC_R][MISS] = 0
	L2_cache_stats_breakdown[L1_WR_ALLOC_R][RESERVATION_FAIL] = 0
	L2_cache_stats_breakdown[L1_WR_ALLOC_R][SECTOR_MISS] = 0
	L2_cache_stats_breakdown[L1_WR_ALLOC_R][MSHR_HIT] = 0
	L2_cache_stats_breakdown[L2_WR_ALLOC_R][HIT] = 0
	L2_cache_stats_breakdown[L2_WR_ALLOC_R][HIT_RESERVED] = 0
	L2_cache_stats_breakdown[L2_WR_ALLOC_R][MISS] = 0
	L2_cache_stats_breakdown[L2_WR_ALLOC_R][RESERVATION_FAIL] = 0
	L2_cache_stats_breakdown[L2_WR_ALLOC_R][SECTOR_MISS] = 0
	L2_cache_stats_breakdown[L2_WR_ALLOC_R][MSHR_HIT] = 0
	L2_cache_stats_breakdown[GLOBAL_ACC_R][TOTAL_ACCESS] = 3691950
	L2_cache_stats_breakdown[GLOBAL_ACC_W][TOTAL_ACCESS] = 1446480
L2_total_cache_reservation_fail_breakdown:
	L2_cache_stats_fail_breakdown[GLOBAL_ACC_R][MSHR_MERGE_ENRTY_FAIL] = 262
L2_cache_data_port_util = 0.032
L2_cache_fill_port_util = 0.003

icnt_total_pkts_mem_to_simt=5138430
icnt_total_pkts_simt_to_mem=5138430
LD_mem_lat_dist  0 0 0 0 0 0 0 0 0 0 0 0 0 0 0 0 0 0 0 0 0 0 0 0 0 0 0
ST_mem_lat_dist  0 0 0 0 0 0 0 0 0 0 0 0 0 0 0 0 0 0 0 0 0 0 0 0 0 0 0
----------------------------Interconnect-DETAILS--------------------------------
Req_Network_injected_packets_num = 5138430
Req_Network_cycles = 6018266
Req_Network_injected_packets_per_cycle =       0.8538 
Req_Network_conflicts_per_cycle =       0.7750
Req_Network_conflicts_per_cycle_util =       2.3113
Req_Bank_Level_Parallism =       2.5463
Req_Network_in_buffer_full_per_cycle =       0.0000
Req_Network_in_buffer_avg_util =       2.9064
Req_Network_out_buffer_full_per_cycle =       0.0000
Req_Network_out_buffer_avg_util =       0.0356

Reply_Network_injected_packets_num = 5138430
Reply_Network_cycles = 6018266
Reply_Network_injected_packets_per_cycle =        0.8538
Reply_Network_conflicts_per_cycle =        1.0042
Reply_Network_conflicts_per_cycle_util =       2.9760
Reply_Bank_Level_Parallism =       2.5302
Reply_Network_in_buffer_full_per_cycle =       0.0000
Reply_Network_in_buffer_avg_util =       0.2292
Reply_Network_out_buffer_full_per_cycle =       0.0000
Reply_Network_out_buffer_avg_util =       0.0285
----------------------------END-of-Interconnect-DETAILS-------------------------


gpgpu_simulation_time = 0 days, 2 hrs, 50 min, 32 sec (10232 sec)
gpgpu_simulation_rate = 5310 (inst/sec)
gpgpu_simulation_rate = 588 (cycle/sec)
gpgpu_silicon_slowdown = 2321428x
	iteration 2, number of components = 1 (1), mstwt = 3139 mstedges = 3139
GPGPU-Sim: synchronize waiting for inactive GPU simulation
GPGPU-Sim API: Stream Manager State
GPGPU-Sim: detected inactive GPU simulation thread
	mstwt = 3139, iterations = 2.
	../CudaBenchmarks/gardenia/datasets/new/econ-psmigr2.mtx result: weight: 3139, components: 1, edges: 3139
	runtime [mst] = 10224622.889000 ms.
GPGPU-Sim: *** exit detected ***
