

        *** GPGPU-Sim Simulator Version 4.2.0  [build gpgpu-sim_git-commit-5e9d31b8132651796656877ecb58fde27177ba7a_modified_315.0] ***


GPGPU-Sim PTX: simulation mode 0 (can change with PTX_SIM_MODE_FUNC environment variable:
               1=functional simulation only, 0=detailed performance simulator)
GPGPU-Sim PTX: overriding embedded ptx with ptx file (PTX_SIM_USE_PTX_FILE is set)
GPGPU-Sim: Configuration options:

-save_embedded_ptx                      0 # saves ptx files embedded in binary as <n>.ptx
-keep                                   0 # keep intermediate files created by GPGPU-Sim when interfacing with external programs
-gpgpu_ptx_save_converted_ptxplus                    0 # Saved converted ptxplus to a file
-gpgpu_occupancy_sm_number                   75 # The SM number to pass to ptxas when getting register usage for computing GPU occupancy. This parameter is required in the config.
-ptx_opcode_latency_int           4,4,4,4,21 # Opcode latencies for integers <ADD,MAX,MUL,MAD,DIV,SHFL>Default 1,1,19,25,145,32
-ptx_opcode_latency_fp           4,4,4,4,39 # Opcode latencies for single precision floating points <ADD,MAX,MUL,MAD,DIV>Default 1,1,1,1,30
-ptx_opcode_latency_dp      64,64,64,64,330 # Opcode latencies for double precision floating points <ADD,MAX,MUL,MAD,DIV>Default 8,8,8,8,335
-ptx_opcode_latency_sfu                   21 # Opcode latencies for SFU instructionsDefault 8
-ptx_opcode_latency_tesnor                   64 # Opcode latencies for Tensor instructionsDefault 64
-ptx_opcode_initiation_int            2,2,2,2,2 # Opcode initiation intervals for integers <ADD,MAX,MUL,MAD,DIV,SHFL>Default 1,1,4,4,32,4
-ptx_opcode_initiation_fp            2,2,2,2,4 # Opcode initiation intervals for single precision floating points <ADD,MAX,MUL,MAD,DIV>Default 1,1,1,1,5
-ptx_opcode_initiation_dp      64,64,64,64,130 # Opcode initiation intervals for double precision floating points <ADD,MAX,MUL,MAD,DIV>Default 8,8,8,8,130
-ptx_opcode_initiation_sfu                    8 # Opcode initiation intervals for sfu instructionsDefault 8
-ptx_opcode_initiation_tensor                   64 # Opcode initiation intervals for tensor instructionsDefault 64
-cdp_latency         7200,8000,100,12000,1600 # CDP API latency <cudaStreamCreateWithFlags, cudaGetParameterBufferV2_init_perWarp, cudaGetParameterBufferV2_perKernel, cudaLaunchDeviceV2_init_perWarp, cudaLaunchDevicV2_perKernel>Default 7200,8000,100,12000,1600
-network_mode                           2 # Interconnection network mode
-inter_config_file                   mesh # Interconnection network config file
-icnt_in_buffer_limit                  512 # in_buffer_limit
-icnt_out_buffer_limit                  512 # out_buffer_limit
-icnt_subnets                           2 # subnets
-icnt_arbiter_algo                      1 # arbiter_algo
-icnt_verbose                           0 # inct_verbose
-icnt_grant_cycles                      1 # grant_cycles
-gpgpu_ptx_use_cuobjdump                    1 # Use cuobjdump to extract ptx and sass from binaries
-gpgpu_experimental_lib_support                    0 # Try to extract code from cuda libraries [Broken because of unknown cudaGetExportTable]
-checkpoint_option                      0 #  checkpointing flag (0 = no checkpoint)
-checkpoint_kernel                      1 #  checkpointing during execution of which kernel (1- 1st kernel)
-checkpoint_CTA                         0 #  checkpointing after # of CTA (< less than total CTA)
-resume_option                          0 #  resume flag (0 = no resume)
-resume_kernel                          0 #  Resume from which kernel (1= 1st kernel)
-resume_CTA                             0 #  resume from which CTA 
-checkpoint_CTA_t                       0 #  resume from which CTA 
-checkpoint_insn_Y                      0 #  resume from which CTA 
-gpgpu_ptx_convert_to_ptxplus                    0 # Convert SASS (native ISA) to ptxplus and run ptxplus
-gpgpu_ptx_force_max_capability                   75 # Force maximum compute capability
-gpgpu_ptx_inst_debug_to_file                    0 # Dump executed instructions' debug information to file
-gpgpu_ptx_inst_debug_file       inst_debug.txt # Executed instructions' debug output file
-gpgpu_ptx_inst_debug_thread_uid                    1 # Thread UID for executed instructions' debug output
-gpgpu_simd_model                       1 # 1 = post-dominator
-gpgpu_shader_core_pipeline              1024:32 # shader core pipeline config, i.e., {<nthread>:<warpsize>}
-gpgpu_tex_cache:l1  N:4:128:256,L:R:m:N:L,T:512:8,128:2 # per-shader L1 texture cache  (READ-ONLY) config  {<nsets>:<bsize>:<assoc>,<rep>:<wr>:<alloc>:<wr_alloc>,<mshr>:<N>:<merge>,<mq>:<rf>}
-gpgpu_const_cache:l1 N:128:64:8,L:R:f:N:L,S:2:64,4 # per-shader L1 constant memory cache  (READ-ONLY) config  {<nsets>:<bsize>:<assoc>,<rep>:<wr>:<alloc>:<wr_alloc>,<mshr>:<N>:<merge>,<mq>} 
-gpgpu_cache:il1     N:64:128:16,L:R:f:N:L,S:2:48,4 # shader L1 instruction cache config  {<nsets>:<bsize>:<assoc>,<rep>:<wr>:<alloc>:<wr_alloc>,<mshr>:<N>:<merge>,<mq>} 
-gpgpu_cache:dl1     S:4:128:64,L:T:m:L:L,A:256:32,16:0,32 # per-shader L1 data cache config  {<nsets>:<bsize>:<assoc>,<rep>:<wr>:<alloc>:<wr_alloc>,<mshr>:<N>:<merge>,<mq> | none}
-gpgpu_l1_cache_write_ratio                   25 # L1D write ratio
-gpgpu_l1_banks                         4 # The number of L1 cache banks
-gpgpu_l1_banks_byte_interleaving                   32 # l1 banks byte interleaving granularity
-gpgpu_l1_banks_hashing_function                    0 # l1 banks hashing function
-gpgpu_l1_latency                      32 # L1 Hit Latency
-gpgpu_smem_latency                    30 # smem Latency
-gpgpu_cache:dl1PrefL1                 none # per-shader L1 data cache config  {<nsets>:<bsize>:<assoc>,<rep>:<wr>:<alloc>:<wr_alloc>,<mshr>:<N>:<merge>,<mq> | none}
-gpgpu_cache:dl1PrefShared                 none # per-shader L1 data cache config  {<nsets>:<bsize>:<assoc>,<rep>:<wr>:<alloc>:<wr_alloc>,<mshr>:<N>:<merge>,<mq> | none}
-gpgpu_gmem_skip_L1D                    0 # global memory access skip L1D cache (implements -Xptxas -dlcm=cg, default=no skip)
-gpgpu_perfect_mem                      0 # enable perfect memory mode (no cache miss)
-n_regfile_gating_group                    4 # group of lanes that should be read/written together)
-gpgpu_clock_gated_reg_file                    0 # enable clock gated reg file for power calculations
-gpgpu_clock_gated_lanes                    0 # enable clock gated lanes for power calculations
-gpgpu_shader_registers                65536 # Number of registers per shader core. Limits number of concurrent CTAs. (default 8192)
-gpgpu_registers_per_block                65536 # Maximum number of registers per CTA. (default 8192)
-gpgpu_ignore_resources_limitation                    0 # gpgpu_ignore_resources_limitation (default 0)
-gpgpu_shader_cta                      16 # Maximum number of concurrent CTAs in shader (default 32)
-gpgpu_num_cta_barriers                   16 # Maximum number of named barriers per CTA (default 16)
-gpgpu_n_clusters                      30 # number of processing clusters
-gpgpu_n_cores_per_cluster                    1 # number of simd cores per cluster
-gpgpu_n_cluster_ejection_buffer_size                   32 # number of packets in ejection buffer
-gpgpu_n_ldst_response_buffer_size                    2 # number of response packets in ld/st unit ejection buffer
-gpgpu_shmem_per_block                49152 # Size of shared memory per thread block or CTA (default 48kB)
-gpgpu_shmem_size                   65536 # Size of shared memory per shader core (default 16kB)
-gpgpu_shmem_option                 32,64 # Option list of shared memory sizes
-gpgpu_unified_l1d_size                   96 # Size of unified data cache(L1D + shared memory) in KB
-gpgpu_adaptive_cache_config                    1 # adaptive_cache_config
-gpgpu_shmem_sizeDefault                65536 # Size of shared memory per shader core (default 16kB)
-gpgpu_shmem_size_PrefL1                16384 # Size of shared memory per shader core (default 16kB)
-gpgpu_shmem_size_PrefShared                16384 # Size of shared memory per shader core (default 16kB)
-gpgpu_shmem_num_banks                   32 # Number of banks in the shared memory in each shader core (default 16)
-gpgpu_shmem_limited_broadcast                    0 # Limit shared memory to do one broadcast per cycle (default on)
-gpgpu_shmem_warp_parts                    1 # Number of portions a warp is divided into for shared memory bank conflict check 
-gpgpu_mem_unit_ports                    1 # The number of memory transactions allowed per core cycle
-gpgpu_shmem_warp_parts                    1 # Number of portions a warp is divided into for shared memory bank conflict check 
-gpgpu_warpdistro_shader                   -1 # Specify which shader core to collect the warp size distribution from
-gpgpu_warp_issue_shader                    0 # Specify which shader core to collect the warp issue distribution from
-gpgpu_local_mem_map                    1 # Mapping from local memory space address to simulated GPU physical address space (default = enabled)
-gpgpu_num_reg_banks                    8 # Number of register banks (default = 8)
-gpgpu_reg_bank_use_warp_id                    0 # Use warp ID in mapping registers to banks (default = off)
-gpgpu_sub_core_model                    1 # Sub Core Volta/Pascal model (default = off)
-gpgpu_enable_specialized_operand_collector                    0 # enable_specialized_operand_collector
-gpgpu_operand_collector_num_units_sp                    4 # number of collector units (default = 4)
-gpgpu_operand_collector_num_units_dp                    0 # number of collector units (default = 0)
-gpgpu_operand_collector_num_units_sfu                    4 # number of collector units (default = 4)
-gpgpu_operand_collector_num_units_int                    0 # number of collector units (default = 0)
-gpgpu_operand_collector_num_units_tensor_core                    4 # number of collector units (default = 4)
-gpgpu_operand_collector_num_units_mem                    2 # number of collector units (default = 2)
-gpgpu_operand_collector_num_units_gen                    8 # number of collector units (default = 0)
-gpgpu_operand_collector_num_in_ports_sp                    1 # number of collector unit in ports (default = 1)
-gpgpu_operand_collector_num_in_ports_dp                    0 # number of collector unit in ports (default = 0)
-gpgpu_operand_collector_num_in_ports_sfu                    1 # number of collector unit in ports (default = 1)
-gpgpu_operand_collector_num_in_ports_int                    0 # number of collector unit in ports (default = 0)
-gpgpu_operand_collector_num_in_ports_tensor_core                    1 # number of collector unit in ports (default = 1)
-gpgpu_operand_collector_num_in_ports_mem                    1 # number of collector unit in ports (default = 1)
-gpgpu_operand_collector_num_in_ports_gen                    8 # number of collector unit in ports (default = 0)
-gpgpu_operand_collector_num_out_ports_sp                    1 # number of collector unit in ports (default = 1)
-gpgpu_operand_collector_num_out_ports_dp                    0 # number of collector unit in ports (default = 0)
-gpgpu_operand_collector_num_out_ports_sfu                    1 # number of collector unit in ports (default = 1)
-gpgpu_operand_collector_num_out_ports_int                    0 # number of collector unit in ports (default = 0)
-gpgpu_operand_collector_num_out_ports_tensor_core                    1 # number of collector unit in ports (default = 1)
-gpgpu_operand_collector_num_out_ports_mem                    1 # number of collector unit in ports (default = 1)
-gpgpu_operand_collector_num_out_ports_gen                    8 # number of collector unit in ports (default = 0)
-gpgpu_coalesce_arch                   75 # Coalescing arch (GT200 = 13, Fermi = 20)
-gpgpu_num_sched_per_core                    4 # Number of warp schedulers per core
-gpgpu_max_insn_issue_per_warp                    1 # Max number of instructions that can be issued per warp in one cycle by scheduler (either 1 or 2)
-gpgpu_dual_issue_diff_exec_units                    1 # should dual issue use two different execution unit resources (Default = 1)
-gpgpu_simt_core_sim_order                    1 # Select the simulation order of cores in a cluster (0=Fix, 1=Round-Robin)
-gpgpu_pipeline_widths 4,4,4,4,4,4,4,4,4,4,8,4,4 # Pipeline widths ID_OC_SP,ID_OC_DP,ID_OC_INT,ID_OC_SFU,ID_OC_MEM,OC_EX_SP,OC_EX_DP,OC_EX_INT,OC_EX_SFU,OC_EX_MEM,EX_WB,ID_OC_TENSOR_CORE,OC_EX_TENSOR_CORE
-gpgpu_tensor_core_avail                    1 # Tensor Core Available (default=0)
-gpgpu_num_sp_units                     4 # Number of SP units (default=1)
-gpgpu_num_dp_units                     4 # Number of DP units (default=0)
-gpgpu_num_int_units                    4 # Number of INT units (default=0)
-gpgpu_num_sfu_units                    4 # Number of SF units (default=1)
-gpgpu_num_tensor_core_units                    4 # Number of tensor_core units (default=1)
-gpgpu_num_mem_units                    1 # Number if ldst units (default=1) WARNING: not hooked up to anything
-gpgpu_scheduler                      lrr # Scheduler configuration: < lrr | gto | two_level_active > If two_level_active:<num_active_warps>:<inner_prioritization>:<outer_prioritization>For complete list of prioritization values see shader.h enum scheduler_prioritization_typeDefault: gto
-gpgpu_concurrent_kernel_sm                    0 # Support concurrent kernels on a SM (default = disabled)
-gpgpu_perfect_inst_const_cache                    1 # perfect inst and const cache mode, so all inst and const hits in the cache(default = disabled)
-gpgpu_inst_fetch_throughput                    4 # the number of fetched intruction per warp each cycle
-gpgpu_reg_file_port_throughput                    2 # the number ports of the register file
-specialized_unit_1         0,4,4,4,4,BRA # specialized unit config {<enabled>,<num_units>:<latency>:<initiation>,<ID_OC_SPEC>:<OC_EX_SPEC>,<NAME>}
-specialized_unit_2         0,4,4,4,4,BRA # specialized unit config {<enabled>,<num_units>:<latency>:<initiation>,<ID_OC_SPEC>:<OC_EX_SPEC>,<NAME>}
-specialized_unit_3         0,4,4,4,4,BRA # specialized unit config {<enabled>,<num_units>:<latency>:<initiation>,<ID_OC_SPEC>:<OC_EX_SPEC>,<NAME>}
-specialized_unit_4         0,4,4,4,4,BRA # specialized unit config {<enabled>,<num_units>:<latency>:<initiation>,<ID_OC_SPEC>:<OC_EX_SPEC>,<NAME>}
-specialized_unit_5         0,4,4,4,4,BRA # specialized unit config {<enabled>,<num_units>:<latency>:<initiation>,<ID_OC_SPEC>:<OC_EX_SPEC>,<NAME>}
-specialized_unit_6         0,4,4,4,4,BRA # specialized unit config {<enabled>,<num_units>:<latency>:<initiation>,<ID_OC_SPEC>:<OC_EX_SPEC>,<NAME>}
-specialized_unit_7         0,4,4,4,4,BRA # specialized unit config {<enabled>,<num_units>:<latency>:<initiation>,<ID_OC_SPEC>:<OC_EX_SPEC>,<NAME>}
-specialized_unit_8         0,4,4,4,4,BRA # specialized unit config {<enabled>,<num_units>:<latency>:<initiation>,<ID_OC_SPEC>:<OC_EX_SPEC>,<NAME>}
-gpgpu_perf_sim_memcpy                    1 # Fill the L2 cache on memcpy
-gpgpu_simple_dram_model                    0 # simple_dram_model with fixed latency and BW
-gpgpu_dram_scheduler                    1 # 0 = fifo, 1 = FR-FCFS (defaul)
-gpgpu_dram_partition_queues          64:64:64:64 # i2$:$2d:d2$:$2i
-l2_ideal                               0 # Use a ideal L2 cache that always hit
-gpgpu_cache:dl2     S:64:128:16,L:B:m:L:P,A:192:4,32:0,32 # unified banked L2 data cache config  {<nsets>:<bsize>:<assoc>,<rep>:<wr>:<alloc>:<wr_alloc>,<mshr>:<N>:<merge>,<mq>}
-gpgpu_cache:dl2_texture_only                    0 # L2 cache used for texture only
-gpgpu_n_mem                           12 # number of memory modules (e.g. memory controllers) in gpu
-gpgpu_n_sub_partition_per_mchannel                    2 # number of memory subpartition in each memory module
-gpgpu_n_mem_per_ctrlr                    1 # number of memory chips per memory controller
-gpgpu_memlatency_stat                   14 # track and display latency statistics 0x2 enables MC, 0x4 enables queue logs
-gpgpu_frfcfs_dram_sched_queue_size                   64 # 0 = unlimited (default); # entries per chip
-gpgpu_dram_return_queue_size                  192 # 0 = unlimited (default); # entries per chip
-gpgpu_dram_buswidth                    2 # default = 4 bytes (8 bytes per cycle at DDR)
-gpgpu_dram_burst_length                   16 # Burst length of each DRAM request (default = 4 data bus cycle)
-dram_data_command_freq_ratio                    4 # Frequency ratio between DRAM data bus and command bus (default = 2 times, i.e. DDR)
-gpgpu_dram_timing_opt nbk=16:CCD=4:RRD=12:RCD=24:RAS=55:RP=24:RC=78:CL=24:WL=8:CDLR=10:WR=24:nbkgrp=4:CCDL=6:RTPL=4 # DRAM timing parameters = {nbk:tCCD:tRRD:tRCD:tRAS:tRP:tRC:CL:WL:tCDLR:tWR:nbkgrp:tCCDL:tRTPL}
-gpgpu_l2_rop_latency                  194 # ROP queue latency (default 85)
-dram_latency                          96 # DRAM latency (default 30)
-dram_dual_bus_interface                    0 # dual_bus_interface (default = 0) 
-dram_bnk_indexing_policy                    0 # dram_bnk_indexing_policy (0 = normal indexing, 1 = Xoring with the higher bits) (Default = 0)
-dram_bnkgrp_indexing_policy                    1 # dram_bnkgrp_indexing_policy (0 = take higher bits, 1 = take lower bits) (Default = 0)
-dram_seperate_write_queue_enable                    0 # Seperate_Write_Queue_Enable
-dram_write_queue_size             32:28:16 # Write_Queue_Size
-dram_elimnate_rw_turnaround                    0 # elimnate_rw_turnaround i.e set tWTR and tRTW = 0
-icnt_flit_size                        40 # icnt_flit_size
-icnt_flit_size                        40 # icnt_flit_size
-mem_profiler                           0 # memory access runtime profiling (0 = not enabled)
-gpgpu_mem_addr_mapping dramid@8;00000000.00000000.00000000.00000000.0000RRRR.RRRRRRRR.RBBBCCCC.BCCSSSSS # mapping memory address to dram model {dramid@<start bit>;<memory address map>}
-gpgpu_mem_addr_test                    0 # run sweep test to check address mapping for aliased address
-gpgpu_mem_address_mask                    1 # 0 = old addressing mask, 1 = new addressing mask, 2 = new add. mask + flipped bank sel and chip sel bits
-gpgpu_memory_partition_indexing                    0 # 0 = no indexing, 1 = bitwise xoring, 2 = IPoly, 3 = custom indexing
-accelwattch_xml_file accelwattch_sass_sim.xml # AccelWattch XML file
-power_simulation_enabled                    1 # Turn on power simulator (1=On, 0=Off)
-power_per_cycle_dump                    1 # Dump detailed power output each cycle
-hw_perf_file_name            hw_perf.csv # Hardware Performance Statistics file
-hw_perf_bench_name    hw_perf_bench_name # Kernel Name in Hardware Performance Statistics file
-power_simulation_mode                    0 # Switch performance counter input for power simulation (0=Sim, 1=HW, 2=HW-Sim Hybrid)
-dvfs_enabled                           1 # Turn on DVFS for power model
-aggregate_power_stats                    0 # Accumulate power across all kernels
-accelwattch_hybrid_perfsim_L1_RH                    0 # Get L1 Read Hits for Accelwattch-Hybrid from Accel-Sim
-accelwattch_hybrid_perfsim_L1_RM                    0 # Get L1 Read Misses for Accelwattch-Hybrid from Accel-Sim
-accelwattch_hybrid_perfsim_L1_WH                    0 # Get L1 Write Hits for Accelwattch-Hybrid from Accel-Sim
-accelwattch_hybrid_perfsim_L1_WM                    0 # Get L1 Write Misses for Accelwattch-Hybrid from Accel-Sim
-accelwattch_hybrid_perfsim_L2_RH                    0 # Get L2 Read Hits for Accelwattch-Hybrid from Accel-Sim
-accelwattch_hybrid_perfsim_L2_RM                    0 # Get L2 Read Misses for Accelwattch-Hybrid from Accel-Sim
-accelwattch_hybrid_perfsim_L2_WH                    0 # Get L2 Write Hits for Accelwattch-Hybrid from Accel-Sim
-accelwattch_hybrid_perfsim_L2_WM                    0 # Get L2 Write Misses for Accelwattch-Hybrid from Accel-Sim
-accelwattch_hybrid_perfsim_CC_ACC                    0 # Get Constant Cache Acesses for Accelwattch-Hybrid from Accel-Sim
-accelwattch_hybrid_perfsim_SHARED_ACC                    0 # Get Shared Memory Acesses for Accelwattch-Hybrid from Accel-Sim
-accelwattch_hybrid_perfsim_DRAM_RD                    0 # Get DRAM Reads for Accelwattch-Hybrid from Accel-Sim
-accelwattch_hybrid_perfsim_DRAM_WR                    0 # Get DRAM Writes for Accelwattch-Hybrid from Accel-Sim
-accelwattch_hybrid_perfsim_NOC                    0 # Get Interconnect Acesses for Accelwattch-Hybrid from Accel-Sim
-accelwattch_hybrid_perfsim_PIPE_DUTY                    0 # Get Pipeline Duty Cycle Acesses for Accelwattch-Hybrid from Accel-Sim
-accelwattch_hybrid_perfsim_NUM_SM_IDLE                    0 # Get Number of Idle SMs for Accelwattch-Hybrid from Accel-Sim
-accelwattch_hybrid_perfsim_CYCLES                    0 # Get Executed Cycles for Accelwattch-Hybrid from Accel-Sim
-accelwattch_hybrid_perfsim_VOLTAGE                    0 # Get Chip Voltage for Accelwattch-Hybrid from Accel-Sim
-power_trace_enabled                    0 # produce a file for the power trace (1=On, 0=Off)
-power_trace_zlevel                     0 # Compression level of the power trace output log (0=no comp, 9=highest)
-steady_power_levels_enabled                    0 # produce a file for the steady power levels (1=On, 0=Off)
-steady_state_definition                  8:4 # allowed deviation:number of samples
-gpgpu_max_cycle                        0 # terminates gpu simulation early (0 = no limit)
-gpgpu_max_insn                         0 # terminates gpu simulation early (0 = no limit)
-gpgpu_max_cta                          0 # terminates gpu simulation early (0 = no limit)
-gpgpu_max_completed_cta                    0 # terminates gpu simulation early (0 = no limit)
-gpgpu_runtime_stat                  1000 # display runtime statistics such as dram utilization {<freq>:<flag>}
-liveness_message_freq                    1 # Minimum number of seconds between simulation liveness messages (0 = always print)
-gpgpu_compute_capability_major                    7 # Major compute capability version number
-gpgpu_compute_capability_minor                    5 # Minor compute capability version number
-gpgpu_flush_l1_cache                    1 # Flush L1 cache at the end of each kernel call
-gpgpu_flush_l2_cache                    0 # Flush L2 cache at the end of each kernel call
-gpgpu_deadlock_detect                    1 # Stop the simulation at deadlock (1=on (default), 0=off)
-gpgpu_ptx_instruction_classification                    0 # if enabled will classify ptx instruction types per kernel (Max 255 kernels now)
-gpgpu_ptx_sim_mode                     0 # Select between Performance (default) or Functional simulation (1)
-gpgpu_clock_domains 1365:1365:1365:3500.5 # Clock Domain Frequencies in MhZ {<Core Clock>:<ICNT Clock>:<L2 Clock>:<DRAM Clock>}
-gpgpu_max_concurrent_kernel                  128 # maximum kernels that can run concurrently on GPU, set this value according to max resident grids for your compute capability
-gpgpu_cflog_interval                    0 # Interval between each snapshot in control flow logger
-visualizer_enabled                     0 # Turn on visualizer output (1=On, 0=Off)
-visualizer_outputfile                 NULL # Specifies the output log file for visualizer
-visualizer_zlevel                      6 # Compression level of the visualizer output log (0=no comp, 9=highest)
-gpgpu_stack_size_limit                 1024 # GPU thread stack size
-gpgpu_heap_size_limit              8388608 # GPU malloc heap size 
-gpgpu_runtime_sync_depth_limit                    2 # GPU device runtime synchronize depth
-gpgpu_runtime_pending_launch_count_limit                 2048 # GPU device runtime pending launch count
-trace_enabled                          0 # Turn on traces
-trace_components                    none # comma seperated list of traces to enable. Complete list found in trace_streams.tup. Default none
-trace_sampling_core                    0 # The core which is printed using CORE_DPRINTF. Default 0
-trace_sampling_memory_partition                   -1 # The memory partition which is printed using MEMPART_DPRINTF. Default -1 (i.e. all)
-enable_ptx_file_line_stats                    1 # Turn on PTX source line statistic profiling. (1 = On)
-ptx_line_stats_filename gpgpu_inst_stats.txt # Output file for PTX source line statistics.
-gpgpu_kernel_launch_latency                 5000 # Kernel launch latency in cycles. Default: 0
-gpgpu_cdp_enabled                      0 # Turn on CDP
-gpgpu_TB_launch_latency                    0 # thread block launch latency in cycles. Default: 0
-mem_runtime_stat                     100 # memory access runtime profiling samplinga51667d8e15abdb1f03be3ee4c9e19ba  /home/pars/Documents/sim_10/cc_warp
Extracting PTX file and ptxas options    1: cc_warp.1.sm_75.ptx -arch=sm_75
 freq
-L1D_metrics                            0 # memory access runtime profiling for L1 data cache
-IPC_per_prof_interval                    0 # IPC per profiling interval
-instruction_monitor                    0 # Instruction monitor
-noncoal_metrics                        0 # memory access runtime profiling for shared memory
-L2_metrics                             0 # memory access runtime profiling for L2 cache
-DRAM_metrics                           0 # memory access runtime profiling for DRAM
-Shmem_metrics                          0 # memory access runtime profiling for noncoalesced accesses
-store_enable                           0 # Enable stores for memory profiling
-accumulate_stats                       0 # Accumulate stats for the memory profiling
-dump_enable                            0 # Process dump enable flag - (def = 0)
-flush_l1d                              0 # Enable flushings for L1D caches - (default = 0)
-flush_l2                               0 # Enable flushings for L2 caches - (default = 0)
-flush_dram                             0 # Enable flushings for DRAM - (default = 0)
-flush_noncoalesceds                    0 # Enable flushings for non coalesced accesses - (default = 0)
-flush_shmems                           0 # Enable flushings for shared memory accesses - (default = 0)
-error_percentage          21474836480001 # Error percentage for the flushes - (default = 1)
-dump_sampling_cycle       21474836485000 # Dump sampling frequency - (default = 5000)
-flush_acc_type                         2 # Flush access types
-monitor_sampling_cycle                 5000 # Monitoring sampling cycle - (default = 5000)
DRAM Timing Options:
nbk                                    16 # number of banks
CCD                                     4 # column to column delay
RRD                                    12 # minimal delay between activation of rows in different banks
RCD                                    24 # row to column delay
RAS                                    55 # time needed to activate row
RP                                     24 # time needed to precharge (deactivate) row
RC                                     78 # row cycle time
CDLR                                   10 # switching from write to read (changes tWTR)
WR                                     24 # last data-in to row precharge
CL                                     24 # CAS latency
WL                                      8 # Write latency
nbkgrp                                  4 # number of bank groups
CCDL                                    6 # column to column delay between accesses to different bank groups
RTPL                                    4 # read to precharge delay between accesses to different bank groups
Total number of memory sub partition = 24
addr_dec_mask[CHIP]  = 0000000000000000 	high:64 low:0
addr_dec_mask[BK]    = 0000000000007080 	high:15 low:7
addr_dec_mask[ROW]   = 000000000fff8000 	high:28 low:15
addr_dec_mask[COL]   = 0000000000000f7f 	high:12 low:0
addr_dec_mask[BURST] = 000000000000001f 	high:5 low:0
sub_partition_id_mask = 0000000000000080
GPGPU-Sim uArch: clock freqs: 1365000000.000000:1365000000.000000:1365000000.000000:3500500000.000000
GPGPU-Sim uArch: clock periods: 0.00000000073260073260:0.00000000073260073260:0.00000000073260073260:0.00000000028567347522
*** Initializing Memory Statistics ***
GPGPU-Sim uArch: performance model initialization complete.
self exe links to: /home/pars/Documents/sim_10/cc_warp
self exe links to: /home/pars/Documents/sim_10/cc_warp
11.0
GPGPU-Sim PTX: __cudaRegisterFatBinary, fat_cubin_handle = 1, filename=default
self exe links to: /home/pars/Documents/sim_10/cc_warp
Running md5sum using "md5sum /home/pars/Documents/sim_10/cc_warp "
self exe links to: /home/pars/Documents/sim_10/cc_warp
Extracting specific PTX file named cc_warp.1.sm_75.ptx 
GPGPU-Sim PTX: __cudaRegisterFunction _Z8shortcutiPi : hostFun 0x0x555c2014ff0b, fat_cubin_handle = 1
GPGPU-Sim PTX: Parsing cc_warp.1.sm_75.ptx
GPGPU-Sim PTX: allocating shared region for "_ZZ4hookiPKmPKiPiPbE4ptrs" from 0x0 to 0x40 (shared memory space)
GPGPU-Sim PTX: instruction assembly for function '_Z4hookiPKmPKiPiPb'...   done.
GPGPU-Sim PTX: instruction assembly for function '_Z8shortcutiPi'...   done.
GPGPU-Sim PTX: finished parsing EMBEDDED .ptx file cc_warp.1.sm_75.ptx
GPGPU-Sim PTX: loading globals with explicit initializers... 
GPGPU-Sim PTX: finished loading globals (0 bytes total).
GPGPU-Sim PTX: loading constants with explicit initializers...  done.
GPGPU-Sim PTX: Loading PTXInfo from cc_warp.1.sm_75.ptx
GPGPU-Sim PTX: Kernel '_Z8shortcutiPi' : regs=12, lmem=0, smem=0, cmem=368
GPGPU-Sim PTX: Kernel '_Z4hookiPKmPKiPiPb' : regs=23, lmem=0, smem=64, cmem=392
GPGPU-Sim PTX: __cudaRegisterFunction _Z4hookiPKmPKiPiPb : hostFun 0x0x555c2014fd90, fat_cubin_handle = 1
Connected Component by Xuhao Chen
Reading (.mtx) input file ../CudaBenchmarks/gardenia/datasets/italy_osm.mtx
Removing redundent edges... 0 redundent edges are removed
|V| 6686493 |E| 14027956
This graph is symmetrized
Launching CUDA CC solver (120 CTAs, 256 threads/CTA) ...
GPGPU-Sim PTX: Setting up arguments for 4 bytes starting at 0x7ffe8cae420c..
GPGPU-Sim PTX: Setting up arguments for 8 bytes starting at 0x7ffe8cae4200..
GPGPU-Sim PTX: Setting up arguments for 8 bytes starting at 0x7ffe8cae41f8..
GPGPU-Sim PTX: Setting up arguments for 8 bytes starting at 0x7ffe8cae41f0..
GPGPU-Sim PTX: Setting up arguments for 8 bytes starting at 0x7ffe8cae41e8..

GPGPU-Sim PTX: cudaLaunch for 0x0x555c2014fd90 (mode=performance simulation) on stream 0
GPGPU-Sim PTX: finding reconvergence points for '_Z4hookiPKmPKiPiPb'...
GPGPU-Sim PTX: Finding dominators for '_Z4hookiPKmPKiPiPb'...
GPGPU-Sim PTX: Finding immediate dominators for '_Z4hookiPKmPKiPiPb'...
GPGPU-Sim PTX: Finding postdominators for '_Z4hookiPKmPKiPiPb'...
GPGPU-Sim PTX: Finding immediate postdominators for '_Z4hookiPKmPKiPiPb'...
GPGPU-Sim PTX: pre-decoding instructions for '_Z4hookiPKmPKiPiPb'...
GPGPU-Sim PTX: reconvergence points for _Z4hookiPKmPKiPiPb...
GPGPU-Sim PTX:  1 (potential) branch divergence @  PC=0x090 (cc_warp.1.sm_75.ptx:49) @%p1 bra $L__BB0_34;

GPGPU-Sim PTX:    immediate post dominator      @  PC=0x5c8 (cc_warp.1.sm_75.ptx:277) ret;

GPGPU-Sim PTX:  2 (potential) branch divergence @  PC=0x0f8 (cc_warp.1.sm_75.ptx:65) @%p2 bra $L__BB0_4;

GPGPU-Sim PTX:    immediate post dominator      @  PC=0x128 (cc_warp.1.sm_75.ptx:74) ld.shared.u32 %r9, [%r5];

GPGPU-Sim PTX:  3 (potential) branch divergence @  PC=0x160 (cc_warp.1.sm_75.ptx:81) @%p3 bra $L__BB0_33;

GPGPU-Sim PTX:    immediate post dominator      @  PC=0x5b0 (cc_warp.1.sm_75.ptx:272) add.s32 %r87, %r87, %r7;

GPGPU-Sim PTX:  4 (potential) branch divergence @  PC=0x1a0 (cc_warp.1.sm_75.ptx:90) @%p4 bra $L__BB0_18;

GPGPU-Sim PTX:    immediate post dominator      @  PC=0x370 (cc_warp.1.sm_75.ptx:171) setp.lt.u32 %p13, %r13, 96;

GPGPU-Sim PTX:  5 (potential) branch divergence @  PC=0x1e0 (cc_warp.1.sm_75.ptx:101) @%p5 bra $L__BB0_9;

GPGPU-Sim PTX:    immediate post dominator      @  PC=0x238 (cc_warp.1.sm_75.ptx:116) add.s32 %r88, %r11, 32;

GPGPU-Sim PTX:  6 (potential) branch divergence @  PC=0x220 (cc_warp.1.sm_75.ptx:110) @%p6 bra $L__BB0_9;

GPGPU-Sim PTX:    immediate post dominator      @  PC=0x238 (cc_warp.1.sm_75.ptx:116) add.s32 %r88, %r11, 32;

GPGPU-Sim PTX:  7 (potential) branch divergence @  PC=0x248 (cc_warp.1.sm_75.ptx:118) @%p7 bra $L__BB0_18;

GPGPU-Sim PTX:    immediate post dominator      @  PC=0x370 (cc_warp.1.sm_75.ptx:171) setp.lt.u32 %p13, %r13, 96;

GPGPU-Sim PTX:  8 (potential) branch divergence @  PC=0x278 (cc_warp.1.sm_75.ptx:127) @%p8 bra $L__BB0_13;

GPGPU-Sim PTX:    immediate post dominator      @  PC=0x2d0 (cc_warp.1.sm_75.ptx:142) add.s32 %r88, %r11, 64;

GPGPU-Sim PTX:  9 (potential) branch divergence @  PC=0x2b8 (cc_warp.1.sm_75.ptx:136) @%p9 bra $L__BB0_13;

GPGPU-Sim PTX:    immediate post dominator      @  PC=0x2d0 (cc_warp.1.sm_75.ptx:142) add.s32 %r88, %r11, 64;

GPGPU-Sim PTX: 10 (potential) branch divergence @  PC=0x2e0 (cc_warp.1.sm_75.ptx:144) @%p10 bra $L__BB0_18;

GPGPU-Sim PTX:    immediate post dominator      @  PC=0x370 (cc_warp.1.sm_75.ptx:171) setp.lt.u32 %p13, %r13, 96;

GPGPU-Sim PTX: 11 (potential) branch divergence @  PC=0x310 (cc_warp.1.sm_75.ptx:153) @%p11 bra $L__BB0_17;

GPGPU-Sim PTX:    immediate post dominator      @  PC=0x368 (cc_warp.1.sm_75.ptx:168) add.s32 %r88, %r11, 96;

GPGPU-Sim PTX: 12 (potential) branch divergence @  PC=0x350 (cc_warp.1.sm_75.ptx:162) @%p12 bra $L__BB0_17;

GPGPU-Sim PTX:    immediate post dominator      @  PC=0x368 (cc_warp.1.sm_75.ptx:168) add.s32 %r88, %r11, 96;

GPGPU-Sim PTX: 13 (potential) branch divergence @  PC=0x378 (cc_warp.1.sm_75.ptx:172) @%p13 bra $L__BB0_33;

GPGPU-Sim PTX:    immediate post dominator      @  PC=0x5b0 (cc_warp.1.sm_75.ptx:272) add.s32 %r87, %r87, %r7;

GPGPU-Sim PTX: 14 (potential) branch divergence @  PC=0x3b8 (cc_warp.1.sm_75.ptx:185) @%p14 bra $L__BB0_23;

GPGPU-Sim PTX:    immediate post dominator      @  PC=0x410 (cc_warp.1.sm_75.ptx:200) ld.global.u32 %r73, [%rd48+128];

GPGPU-Sim PTX: 15 (potential) branch divergence @  PC=0x3f8 (cc_warp.1.sm_75.ptx:194) @%p15 bra $L__BB0_23;

GPGPU-Sim PTX:    immediate post dominator      @  PC=0x410 (cc_warp.1.sm_75.ptx:200) ld.global.u32 %r73, [%rd48+128];

GPGPU-Sim PTX: 16 (potential) branch divergence @  PC=0x438 (cc_warp.1.sm_75.ptx:207) @%p16 bra $L__BB0_26;

GPGPU-Sim PTX:    immediate post dominator      @  PC=0x490 (cc_warp.1.sm_75.ptx:222) ld.global.u32 %r78, [%rd48+256];

GPGPU-Sim PTX: 17 (potential) branch divergence @  PC=0x478 (cc_warp.1.sm_75.ptx:216) @%p17 bra $L__BB0_26;

GPGPU-Sim PTX:    immediate post dominator      @  PC=0x490 (cc_warp.1.sm_75.ptx:222) ld.global.u32 %r78, [%rd48+256];

GPGPU-Sim PTX: 18 (potential) branch divergence @  PC=0x4b8 (cc_warp.1.sm_75.ptx:229) @%p18 bra $L__BB0_29;

GPGPU-Sim PTX:    immediate post dominator      @  PC=0x510 (cc_warp.1.sm_75.ptx:244) ld.global.u32 %r83, [%rd48+384];

GPGPU-Sim PTX: 19 (potential) branch divergence @  PC=0x4f8 (cc_warp.1.sm_75.ptx:238) @%p19 bra $L__BB0_29;

GPGPU-Sim PTX:    immediate post dominator      @  PC=0x510 (cc_warp.1.sm_75.ptx:244) ld.global.u32 %r83, [%rd48+384];

GPGPU-Sim PTX: 20 (potential) branch divergence @  PC=0x538 (cc_warp.1.sm_75.ptx:251) @%p20 bra $L__BB0_32;

GPGPU-Sim PTX:    immediate post dominator      @  PC=0x590 (cc_warp.1.sm_75.ptx:266) add.s32 %r88, %r88, 128;

GPGPU-Sim PTX: 21 (potential) branch divergence @  PC=0x578 (cc_warp.1.sm_75.ptx:260) @%p21 bra $L__BB0_32;

GPGPU-Sim PTX:    immediate post dominator      @  PC=0x590 (cc_warp.1.sm_75.ptx:266) add.s32 %r88, %r88, 128;

GPGPU-Sim PTX: 22 (potential) branch divergence @  PC=0x5a8 (cc_warp.1.sm_75.ptx:269) @%p22 bra $L__BB0_20;

GPGPU-Sim PTX:    immediate post dominator      @  PC=0x5b0 (cc_warp.1.sm_75.ptx:272) add.s32 %r87, %r87, %r7;

GPGPU-Sim PTX: 23 (potential) branch divergence @  PC=0x5c0 (cc_warp.1.sm_75.ptx:274) @%p23 bra $L__BB0_2;

GPGPU-Sim PTX:    immediate post dominator      @  PC=0x5c8 (cc_warp.1.sm_75.ptx:277) ret;

GPGPU-Sim PTX: ... end of reconvergence points for _Z4hookiPKmPKiPiPb
GPGPU-Sim PTX: ... done pre-decoding instructions for '_Z4hookiPKmPKiPiPb'.
GPGPU-Sim PTX: pushing kernel '_Z4hookiPKmPKiPiPb' to stream 0, gridDim= (120,1,1) blockDim = (256,1,1) 
GPGPU-Sim uArch: Shader 0 bind to kernel 1 '_Z4hookiPKmPKiPiPb'
GPGPU-Sim uArch: CTA/core = 4, limited by: threads
GPGPU-Sim: Reconfigure L1 cache to 64KB
GPGPU-Sim uArch: Shader 1 bind to kernel 1 '_Z4hookiPKmPKiPiPb'
GPGPU-Sim uArch: Shader 2 bind to kernel 1 '_Z4hookiPKmPKiPiPb'
GPGPU-Sim uArch: Shader 3 bind to kernel 1 '_Z4hookiPKmPKiPiPb'
GPGPU-Sim uArch: Shader 4 bind to kernel 1 '_Z4hookiPKmPKiPiPb'
GPGPU-Sim uArch: Shader 5 bind to kernel 1 '_Z4hookiPKmPKiPiPb'
GPGPU-Sim uArch: Shader 6 bind to kernel 1 '_Z4hookiPKmPKiPiPb'
GPGPU-Sim uArch: Shader 7 bind to kernel 1 '_Z4hookiPKmPKiPiPb'
GPGPU-Sim uArch: Shader 8 bind to kernel 1 '_Z4hookiPKmPKiPiPb'
GPGPU-Sim uArch: Shader 9 bind to kernel 1 '_Z4hookiPKmPKiPiPb'
GPGPU-Sim uArch: Shader 10 bind to kernel 1 '_Z4hookiPKmPKiPiPb'
GPGPU-Sim uArch: Shader 11 bind to kernel 1 '_Z4hookiPKmPKiPiPb'
GPGPU-Sim uArch: Shader 12 bind to kernel 1 '_Z4hookiPKmPKiPiPb'
GPGPU-Sim uArch: Shader 13 bind to kernel 1 '_Z4hookiPKmPKiPiPb'
GPGPU-Sim uArch: Shader 14 bind to kernel 1 '_Z4hookiPKmPKiPiPb'
GPGPU-Sim uArch: Shader 15 bind to kernel 1 '_Z4hookiPKmPKiPiPb'
GPGPU-Sim uArch: Shader 16 bind to kernel 1 '_Z4hookiPKmPKiPiPb'
GPGPU-Sim uArch: Shader 17 bind to kernel 1 '_Z4hookiPKmPKiPiPb'
GPGPU-Sim uArch: Shader 18 bind to kernel 1 '_Z4hookiPKmPKiPiPb'
GPGPU-Sim uArch: Shader 19 bind to kernel 1 '_Z4hookiPKmPKiPiPb'
GPGPU-Sim uArch: Shader 20 bind to kernel 1 '_Z4hookiPKmPKiPiPb'
GPGPU-Sim uArch: Shader 21 bind to kernel 1 '_Z4hookiPKmPKiPiPb'
GPGPU-Sim uArch: Shader 22 bind to kernel 1 '_Z4hookiPKmPKiPiPb'
GPGPU-Sim uArch: Shader 23 bind to kernel 1 '_Z4hookiPKmPKiPiPb'
GPGPU-Sim uArch: Shader 24 bind to kernel 1 '_Z4hookiPKmPKiPiPb'
GPGPU-Sim uArch: Shader 25 bind to kernel 1 '_Z4hookiPKmPKiPiPb'
GPGPU-Sim uArch: Shader 26 bind to kernel 1 '_Z4hookiPKmPKiPiPb'
GPGPU-Sim uArch: Shader 27 bind to kernel 1 '_Z4hookiPKmPKiPiPb'
GPGPU-Sim uArch: Shader 28 bind to kernel 1 '_Z4hookiPKmPKiPiPb'
GPGPU-Sim uArch: Shader 29 bind to kernel 1 '_Z4hookiPKmPKiPiPb'
Destroy streams for kernel 1: size 0
kernel_name = _Z4hookiPKmPKiPiPb 
kernel_launch_uid = 1 
gpu_sim_cycle = 7519824
gpu_sim_insn = 2995392685
gpu_ipc =     398.3328
gpu_tot_sim_cycle = 7519824
gpu_tot_sim_insn = 2995392685
gpu_tot_ipc =     398.3328
gpu_tot_issued_cta = 120
gpu_occupancy = 99.9904% 
gpu_tot_occupancy = 99.9904% 
max_total_param_size = 0
gpu_stall_dramfull = 0
gpu_stall_icnt2sh    = 0
partiton_level_parallism =       2.7789
partiton_level_parallism_total  =       2.7789
partiton_level_parallism_util =       2.8434
partiton_level_parallism_util_total  =       2.8434
L2_BW  =     121.3815 GB/Sec
L2_BW_total  =     121.3815 GB/Sec
gpu_total_sim_rate=38633

========= Core cache stats =========
L1I_cache:
	L1I_total_cache_accesses = 0
	L1I_total_cache_misses = 0
	L1I_total_cache_pending_hits = 0
	L1I_total_cache_reservation_fails = 0
L1D_cache:
	L1D_cache_core[0]: Access = 1765867, Miss = 291262, Miss_rate = 0.165, Pending_hits = 542402, Reservation_fails = 0
	L1D_cache_core[1]: Access = 1766148, Miss = 291383, Miss_rate = 0.165, Pending_hits = 542521, Reservation_fails = 0
	L1D_cache_core[2]: Access = 1768743, Miss = 291375, Miss_rate = 0.165, Pending_hits = 542979, Reservation_fails = 0
	L1D_cache_core[3]: Access = 1767791, Miss = 291223, Miss_rate = 0.165, Pending_hits = 541901, Reservation_fails = 0
	L1D_cache_core[4]: Access = 1766079, Miss = 291349, Miss_rate = 0.165, Pending_hits = 543100, Reservation_fails = 0
	L1D_cache_core[5]: Access = 1764663, Miss = 291401, Miss_rate = 0.165, Pending_hits = 541683, Reservation_fails = 0
	L1D_cache_core[6]: Access = 1763369, Miss = 291311, Miss_rate = 0.165, Pending_hits = 543100, Reservation_fails = 0
	L1D_cache_core[7]: Access = 1764808, Miss = 291342, Miss_rate = 0.165, Pending_hits = 543863, Reservation_fails = 0
	L1D_cache_core[8]: Access = 1767567, Miss = 292026, Miss_rate = 0.165, Pending_hits = 542920, Reservation_fails = 0
	L1D_cache_core[9]: Access = 1767401, Miss = 291492, Miss_rate = 0.165, Pending_hits = 543524, Reservation_fails = 0
	L1D_cache_core[10]: Access = 1764806, Miss = 292218, Miss_rate = 0.166, Pending_hits = 543551, Reservation_fails = 0
	L1D_cache_core[11]: Access = 1764044, Miss = 291527, Miss_rate = 0.165, Pending_hits = 543631, Reservation_fails = 0
	L1D_cache_core[12]: Access = 1764405, Miss = 291563, Miss_rate = 0.165, Pending_hits = 543773, Reservation_fails = 0
	L1D_cache_core[13]: Access = 1763058, Miss = 291476, Miss_rate = 0.165, Pending_hits = 544691, Reservation_fails = 0
	L1D_cache_core[14]: Access = 1767898, Miss = 291330, Miss_rate = 0.165, Pending_hits = 544157, Reservation_fails = 0
	L1D_cache_core[15]: Access = 1768155, Miss = 291368, Miss_rate = 0.165, Pending_hits = 543615, Reservation_fails = 0
	L1D_cache_core[16]: Access = 1765142, Miss = 291129, Miss_rate = 0.165, Pending_hits = 543616, Reservation_fails = 0
	L1D_cache_core[17]: Access = 1764313, Miss = 291458, Miss_rate = 0.165, Pending_hits = 543749, Reservation_fails = 0
	L1D_cache_core[18]: Access = 1764442, Miss = 291182, Miss_rate = 0.165, Pending_hits = 543502, Reservation_fails = 0
	L1D_cache_core[19]: Access = 1766961, Miss = 291554, Miss_rate = 0.165, Pending_hits = 543665, Reservation_fails = 0
	L1D_cache_core[20]: Access = 1769786, Miss = 291285, Miss_rate = 0.165, Pending_hits = 544271, Reservation_fails = 0
	L1D_cache_core[21]: Access = 1769559, Miss = 291458, Miss_rate = 0.165, Pending_hits = 543514, Reservation_fails = 0
	L1D_cache_core[22]: Access = 1767307, Miss = 291543, Miss_rate = 0.165, Pending_hits = 542726, Reservation_fails = 0
	L1D_cache_core[23]: Access = 1765495, Miss = 291246, Miss_rate = 0.165, Pending_hits = 542972, Reservation_fails = 0
	L1D_cache_core[24]: Access = 1765058, Miss = 291351, Miss_rate = 0.165, Pending_hits = 543837, Reservation_fails = 0
	L1D_cache_core[25]: Access = 1765889, Miss = 291747, Miss_rate = 0.165, Pending_hits = 544017, Reservation_fails = 0
	L1D_cache_core[26]: Access = 1768842, Miss = 291436, Miss_rate = 0.165, Pending_hits = 543594, Reservation_fails = 0
	L1D_cache_core[27]: Access = 1769666, Miss = 291476, Miss_rate = 0.165, Pending_hits = 542360, Reservation_fails = 0
	L1D_cache_core[28]: Access = 1767060, Miss = 290677, Miss_rate = 0.164, Pending_hits = 542620, Reservation_fails = 0
	L1D_cache_core[29]: Access = 1766445, Miss = 290887, Miss_rate = 0.165, Pending_hits = 542138, Reservation_fails = 0
	L1D_total_cache_accesses = 52990767
	L1D_total_cache_misses = 8742075
	L1D_total_cache_miss_rate = 0.1650
	L1D_total_cache_pending_hits = 16297992
	L1D_total_cache_reservation_fails = 0
	L1D_cache_data_port_util = 0.124
	L1D_cache_fill_port_util = 0.039
L1C_cache:
	L1C_total_cache_accesses = 0
	L1C_total_cache_misses = 0
	L1C_total_cache_pending_hits = 0
	L1C_total_cache_reservation_fails = 0
L1T_cache:
	L1T_total_cache_accesses = 0
	L1T_total_cache_misses = 0
	L1T_total_cache_pending_hits = 0
	L1T_total_cache_reservation_fails = 0

Total_core_cache_stats:
	Total_core_cache_stats_breakdown[GLOBAL_ACC_R][HIT] = 15796081
	Total_core_cache_stats_breakdown[GLOBAL_ACC_R][HIT_RESERVED] = 16297992
	Total_core_cache_stats_breakdown[GLOBAL_ACC_R][MISS] = 4889049
	Total_core_cache_stats_breakdown[GLOBAL_ACC_R][RESERVATION_FAIL] = 0
	Total_core_cache_stats_breakdown[GLOBAL_ACC_R][SECTOR_MISS] = 3852996
	Total_core_cache_stats_breakdown[GLOBAL_ACC_R][MSHR_HIT] = 16297992
	Total_core_cache_stats_breakdown[LOCAL_ACC_R][HIT] = 0
	Total_core_cache_stats_breakdown[LOCAL_ACC_R][HIT_RESERVED] = 0
	Total_core_cache_stats_breakdown[LOCAL_ACC_R][MISS] = 0
	Total_core_cache_stats_breakdown[LOCAL_ACC_R][RESERVATION_FAIL] = 0
	Total_core_cache_stats_breakdown[LOCAL_ACC_R][SECTOR_MISS] = 0
	Total_core_cache_stats_breakdown[LOCAL_ACC_R][MSHR_HIT] = 0
	Total_core_cache_stats_breakdown[CONST_ACC_R][HIT] = 0
	Total_core_cache_stats_breakdown[CONST_ACC_R][HIT_RESERVED] = 0
	Total_core_cache_stats_breakdown[CONST_ACC_R][MISS] = 0
	Total_core_cache_stats_breakdown[CONST_ACC_R][RESERVATION_FAIL] = 0
	Total_core_cache_stats_breakdown[CONST_ACC_R][SECTOR_MISS] = 0
	Total_core_cache_stats_breakdown[CONST_ACC_R][MSHR_HIT] = 0
	Total_core_cache_stats_breakdown[TEXTURE_ACC_R][HIT] = 0
	Total_core_cache_stats_breakdown[TEXTURE_ACC_R][HIT_RESERVED] = 0
	Total_core_cache_stats_breakdown[TEXTURE_ACC_R][MISS] = 0
	Total_core_cache_stats_breakdown[TEXTURE_ACC_R][RESERVATION_FAIL] = 0
	Total_core_cache_stats_breakdown[TEXTURE_ACC_R][SECTOR_MISS] = 0
	Total_core_cache_stats_breakdown[TEXTURE_ACC_R][MSHR_HIT] = 0
	Total_core_cache_stats_breakdown[GLOBAL_ACC_W][HIT] = 12154619
	Total_core_cache_stats_breakdown[GLOBAL_ACC_W][HIT_RESERVED] = 0
	Total_core_cache_stats_breakdown[GLOBAL_ACC_W][MISS] = 30
	Total_core_cache_stats_breakdown[GLOBAL_ACC_W][RESERVATION_FAIL] = 0
	Total_core_cache_stats_breakdown[GLOBAL_ACC_W][SECTOR_MISS] = 0
	Total_core_cache_stats_breakdown[GLOBAL_ACC_W][MSHR_HIT] = 0
	Total_core_cache_stats_breakdown[LOCAL_ACC_W][HIT] = 0
	Total_core_cache_stats_breakdown[LOCAL_ACC_W][HIT_RESERVED] = 0
	Total_core_cache_stats_breakdown[LOCAL_ACC_W][MISS] = 0
	Total_core_cache_stats_breakdown[LOCAL_ACC_W][RESERVATION_FAIL] = 0
	Total_core_cache_stats_breakdown[LOCAL_ACC_W][SECTOR_MISS] = 0
	Total_core_cache_stats_breakdown[LOCAL_ACC_W][MSHR_HIT] = 0
	Total_core_cache_stats_breakdown[L1_WRBK_ACC][HIT] = 0
	Total_core_cache_stats_breakdown[L1_WRBK_ACC][HIT_RESERVED] = 0
	Total_core_cache_stats_breakdown[L1_WRBK_ACC][MISS] = 0
	Total_core_cache_stats_breakdown[L1_WRBK_ACC][RESERVATION_FAIL] = 0
	Total_core_cache_stats_breakdown[L1_WRBK_ACC][SECTOR_MISS] = 0
	Total_core_cache_stats_breakdown[L1_WRBK_ACC][MSHR_HIT] = 0
	Total_core_cache_stats_breakdown[L2_WRBK_ACC][HIT] = 0
	Total_core_cache_stats_breakdown[L2_WRBK_ACC][HIT_RESERVED] = 0
	Total_core_cache_stats_breakdown[L2_WRBK_ACC][MISS] = 0
	Total_core_cache_stats_breakdown[L2_WRBK_ACC][RESERVATION_FAIL] = 0
	Total_core_cache_stats_breakdown[L2_WRBK_ACC][SECTOR_MISS] = 0
	Total_core_cache_stats_breakdown[L2_WRBK_ACC][MSHR_HIT] = 0
	Total_core_cache_stats_breakdown[INST_ACC_R][HIT] = 0
	Total_core_cache_stats_breakdown[INST_ACC_R][HIT_RESERVED] = 0
	Total_core_cache_stats_breakdown[INST_ACC_R][MISS] = 0
	Total_core_cache_stats_breakdown[INST_ACC_R][RESERVATION_FAIL] = 0
	Total_core_cache_stats_breakdown[INST_ACC_R][SECTOR_MISS] = 0
	Total_core_cache_stats_breakdown[INST_ACC_R][MSHR_HIT] = 0
	Total_core_cache_stats_breakdown[L1_WR_ALLOC_R][HIT] = 0
	Total_core_cache_stats_breakdown[L1_WR_ALLOC_R][HIT_RESERVED] = 0
	Total_core_cache_stats_breakdown[L1_WR_ALLOC_R][MISS] = 0
	Total_core_cache_stats_breakdown[L1_WR_ALLOC_R][RESERVATION_FAIL] = 0
	Total_core_cache_stats_breakdown[L1_WR_ALLOC_R][SECTOR_MISS] = 0
	Total_core_cache_stats_breakdown[L1_WR_ALLOC_R][MSHR_HIT] = 0
	Total_core_cache_stats_breakdown[L2_WR_ALLOC_R][HIT] = 0
	Total_core_cache_stats_breakdown[L2_WR_ALLOC_R][HIT_RESERVED] = 0
	Total_core_cache_stats_breakdown[L2_WR_ALLOC_R][MISS] = 0
	Total_core_cache_stats_breakdown[L2_WR_ALLOC_R][RESERVATION_FAIL] = 0
	Total_core_cache_stats_breakdown[L2_WR_ALLOC_R][SECTOR_MISS] = 0
	Total_core_cache_stats_breakdown[L2_WR_ALLOC_R][MSHR_HIT] = 0
	Total_core_cache_stats_breakdown[GLOBAL_ACC_R][TOTAL_ACCESS] = 40836118
	Total_core_cache_stats_breakdown[GLOBAL_ACC_W][TOTAL_ACCESS] = 12154649

Total_core_cache_fail_stats:
ctas_completed 120, Shader 0 warp_id issue ditsribution:
warp_id:
0, 1, 2, 3, 4, 5, 6, 7, 8, 9, 10, 11, 12, 13, 14, 15, 16, 17, 18, 19, 20, 21, 22, 23, 24, 25, 26, 27, 28, 29, 30, 31, 
distro:
331912, 333218, 333010, 333046, 333100, 333092, 333366, 331302, 331204, 333066, 332898, 332886, 332952, 333020, 333208, 331710, 330700, 333100, 332984, 332898, 332930, 332948, 333242, 331474, 331372, 333008, 332882, 332862, 332902, 332926, 333186, 330950, 
gpgpu_n_tot_thrd_icount = 10218038464
gpgpu_n_tot_w_icount = 319313702
gpgpu_n_stall_shd_mem = 792508
gpgpu_n_mem_read_local = 0
gpgpu_n_mem_write_local = 0
gpgpu_n_mem_read_global = 8742045
gpgpu_n_mem_write_global = 12154649
gpgpu_n_mem_texture = 0
gpgpu_n_mem_const = 0
gpgpu_n_load_insn  = 269201238
gpgpu_n_store_insn = 20405434
gpgpu_n_shmem_insn = 441308538
gpgpu_n_sstarr_insn = 0
gpgpu_n_tex_insn = 0
gpgpu_n_const_mem_insn = 0
gpgpu_n_param_mem_insn = 153600
gpgpu_n_shmem_bkconflict = 0
gpgpu_n_cache_bkconflict = 0
gpgpu_n_intrawarp_mshr_merge = 0
gpgpu_n_cmem_portconflict = 0
gpgpu_stall_shd_mem[c_mem][resource_stall] = 0
gpgpu_stall_shd_mem[s_mem][bk_conf] = 0
gpgpu_stall_shd_mem[gl_mem][resource_stall] = 792320
gpgpu_stall_shd_mem[gl_mem][coal_stall] = 188
gpgpu_stall_shd_mem[gl_mem][data_port_stall] = 0
gpu_reg_bank_conflict_stalls = 0
Warp Occupancy Distribution:
Stall:11437117	W0_Idle:23057	W0_Scoreboard:570968360	W1:9359137	W2:208862095	W3:18162171	W4:2593393	W5:60010	W6:7655	W7:309	W8:267	W9:29	W10:0	W11:0	W12:0	W13:0	W14:0	W15:0	W16:0	W17:0	W18:0	W19:0	W20:0	W21:0	W22:0	W23:0	W24:0	W25:0	W26:0	W27:0	W28:0	W29:0	W30:0	W31:0	W32:80268636
single_issue_nums: WS0:79745452	WS1:79931894	WS2:79937314	WS3:79699042	
dual_issue_nums: WS0:0	WS1:0	WS2:0	WS3:0	
traffic_breakdown_coretomem[GLOBAL_ACC_R] = 69936360 {8:8742045,}
traffic_breakdown_coretomem[GLOBAL_ACC_W] = 486185960 {40:12154649,}
traffic_breakdown_memtocore[GLOBAL_ACC_R] = 349681800 {40:8742045,}
traffic_breakdown_memtocore[GLOBAL_ACC_W] = 97237192 {8:12154649,}
maxmflatency = 1131 
max_icnt2mem_latency = 817 
maxmrqlatency = 159 
max_icnt2sh_latency = 17 
averagemflatency = 272 
avg_icnt2mem_latency = 43 
avg_mrq_latency = 2 
avg_icnt2sh_latency = 2 
mrq_lat_table:4620477 	58670 	104746 	229444 	296122 	93376 	7860 	41 	0 	0 	0 	0 	0 	0 	0 	0 	0 	0 	0 	0 	0 	0 	0 	0 	0 	0 	0 	0 	0 	0 	0 	0 	
dq_lat_table:0 	0 	0 	0 	0 	0 	0 	0 	0 	0 	0 	0 	0 	0 	0 	0 	0 	0 	0 	0 	0 	0 	0 	0 	0 	0 	0 	0 	0 	0 	0 	0 	
mf_lat_table:0 	0 	0 	0 	0 	0 	0 	12896987 	7992467 	7229 	11 	0 	0 	0 	0 	0 	0 	0 	0 	0 	0 	0 	0 	0 	0 	0 	0 	0 	0 	0 	0 	0 	
icnt2mem_lat_table:0 	0 	0 	0 	0 	18931507 	1789909 	168436 	5985 	857 	0 	0 	0 	0 	0 	0 	0 	0 	0 	0 	0 	0 	0 	0 	
icnt2sh_lat_table:0 	20464175 	430654 	1862 	3 	0 	0 	0 	0 	0 	0 	0 	0 	0 	0 	0 	0 	0 	0 	0 	0 	0 	0 	0 	
mf_lat_pw_table:0 	0 	0 	0 	0 	0 	0 	0 	7513 	1 	0 	0 	0 	0 	0 	0 	0 	0 	0 	0 	0 	0 	0 	0 	0 	0 	0 	0 	0 	0 	0 	0 	
maximum concurrent accesses to same row:
dram[0]:        64        64        64        64        64        64        64        64        64        64        64        64        64        64        64        64 
dram[1]:        64        64        64        64        64        64        64        64        64        64        64        64        64        64        64        64 
dram[2]:        64        64        64        64        64        64        64        64        64        64        64        64        64        64        64        64 
dram[3]:        64        64        64        64        64        64        64        64        64        64        64        64        64        64        64        64 
dram[4]:        64        64        64        64        64        64        64        64        64        64        64        64        64        64        64        64 
dram[5]:        64        64        64        64        64        64        64        64        64        64        64        64        64        64        64        64 
dram[6]:        64        64        64        64        64        64        64        64        64        64        64        64        64        64        64        64 
dram[7]:        64        64        64        64        64        64        64        64        64        64        64        64        64        64        64        64 
dram[8]:        64        64        64        64        64        64        64        64        64        64        64        64        64        64        64        64 
dram[9]:        64        64        64        64        64        64        64        64        64        64        64        64        64        64        64        64 
dram[10]:        64        64        64        64        64        64        64        64        64        64        64        64        64        64        64        64 
dram[11]:        64        64        64        64        64        64        64        64        64        64        64        64        64        64        64        64 
maximum service time to same row:
dram[0]:     35051     30965     26961     27177     33121     37426     42040     45270     24541     29889     42157     33850     19728     42490     42554     33111 
dram[1]:     22999     39464     29826     24148     36219     44093     40109     34435     29898     23857     30296     43466     42915     38391     43195     43378 
dram[2]:     43175     41696     29833     24998     32949     38116     37628     41722     36045     42302     24932     43730     42816     41548     39038     37832 
dram[3]:     32755     32416     27335     45172     43502     44484     34793     40120     42450     42432     44364     44274     44099     44057     38159     29695 
dram[4]:     41584     39674     30900     39834     43327     43707     43586     43204     44482     42462     43868     42536     22413     38506     38639     25134 
dram[5]:     31110     39531     34888     43654     35296     27630     43912     26933     43647     32098     32183     44236     39884     35987     29054     35292 
dram[6]:     35895     36414     28979     30141     41636     37401     41654     17844     25229     30082     40940     34257     40000     43603     39665     39916 
dram[7]:     40301     42987     38622     30299     43751     37461     23057     35250     38068     43103     37331     30455     33233     42587     40319     38177 
dram[8]:     42611     43014     38845     38390     40116     40958     44076     42103     39999     34320     37232     36114     19875     36115     37807     22467 
dram[9]:     35513     40882     21353     33663     34093     28077     34126     41928     43819     26955     36502     41904     39734     43357     37384     41764 
dram[10]:     31563     40036     30412     45903     43716     43682     35387     28846     40558     34045     30095     38838     42960     42711     38711     38676 
dram[11]:     27754     41258     32970     23282     42209     35117     44029     37298     33745     32130     38037     39081     40530     39520     42101     39638 
average row accesses per activate:
dram[0]:  3.497208  3.480020  3.480715  3.463444  3.397105  3.383401  3.068899  3.097997  3.305461  3.284986  3.490062  3.445110  3.480303  3.485824  3.433685  3.501312 
dram[1]:  3.486945  3.529620  3.501116  3.437379  3.323389  3.328901  3.089460  3.054109  3.274878  3.254308  3.504801  3.493536  3.510435  3.405442  3.453258  3.470479 
dram[2]:  3.563389  3.543960  3.359957  3.405100  3.259356  3.324119  3.108984  3.128437  3.275099  3.206658  3.466913  3.455505  3.397779  3.400894  3.445591  3.426307 
dram[3]:  3.559903  3.576111  3.339205  3.454932  3.397824  3.413643  3.101201  3.343522  3.193548  3.257734  3.472528  3.526987  3.449214  3.474532  3.458992  3.469006 
dram[4]:  3.491307  3.569345  3.397164  3.443001  3.436144  3.359632  3.227880  3.128928  3.310616  3.237315  3.561214  3.432085  3.543285  3.404503  3.548362  3.439951 
dram[5]:  3.504192  3.541931  3.457536  3.415982  3.382402  3.335181  3.172800  3.099813  3.188961  3.166518  3.474048  3.459234  3.449384  3.487080  3.493619  3.429584 
dram[6]:  3.571703  3.631751  3.402253  3.367792  3.225752  3.343813  3.192286  3.125249  3.174147  3.207349  3.576299  3.514239  3.491580  3.419711  3.436553  3.434756 
dram[7]:  3.620367  3.532223  3.442669  3.365943  3.383504  3.372851  3.100198  2.982941  3.198618  3.172974  3.506430  3.499564  3.441558  3.401551  3.391830  3.446688 
dram[8]:  3.575816  3.461444  3.403795  3.342914  3.356420  3.277765  2.964427  3.031273  3.166592  3.198499  3.383844  3.541152  3.447362  3.493982  3.448127  3.357694 
dram[9]:  3.522518  3.499752  3.386765  3.440937  3.299637  3.269372  3.041173  3.020613  3.251306  3.196820  3.484092  3.418860  3.577448  3.539164  3.416880  3.450564 
dram[10]:  3.463155  3.374375  3.377432  3.431835  3.273273  3.322251  2.972520  3.049263  3.187023  3.333890  3.395971  3.427182  3.502831  3.454814  3.442937  3.439084 
dram[11]:  3.435468  3.553102  3.452651  3.374300  3.427790  3.448947  3.047935  3.033082  3.186002  3.271367  3.502113  3.534014  3.441345  3.442251  3.396340  3.460124 
average row locality = 5410736/1606851 = 3.367292
number of total memory accesses made:
dram[0]:         0         0         0         0         0         0         0         0         0         0         0         0         0         0         0         0 
dram[1]:         0         0         0         0         0         0         0         0         0         0         0         0         0         0         0         0 
dram[2]:         0         0         0         0         0         0         0         0         0         0         0         0         0         0         0         0 
dram[3]:         0         0         0         0         0         0         0         0         0         0         0         0         0         0         0         0 
dram[4]:         0         0         0         0         0         0         0         0         0         0         0         0         0         0         0         0 
dram[5]:         0         0         0         0         0         0         0         0         0         0         0         0         0         0         0         0 
dram[6]:         0         0         0         0         0         0         0         0         0         0         0         0         0         0         0         0 
dram[7]:         0         0         0         0         0         0         0         0         0         0         0         0         0         0         0         0 
dram[8]:         0         0         0         0         0         0         0         0         0         0         0         0         0         0         0         0 
dram[9]:         0         0         0         0         0         0         0         0         0         0         0         0         0         0         0         0 
dram[10]:         0         0         0         0         0         0         0         0         0         0         0         0         0         0         0         0 
dram[11]:         0         0         0         0         0         0         0         0         0         0         0         0         0         0         0         0 
total accesses: 0
min_bank_accesses = 0!
min_chip_accesses = 0!
number of total read accesses:
dram[0]:     25706     25681     25770     25836     25707     25779     26110     26016     25713     25821     25625     25717     25569     25544     25561     25571 
dram[1]:     25703     25531     25771     25860     25938     25935     25909     26058     25772     25707     25658     25659     25521     25489     25588     25571 
dram[2]:     25407     25413     25864     25828     25969     25851     25902     25820     25695     25851     25665     25679     25667     25661     25631     25645 
dram[3]:     25442     25501     26055     25915     25672     25743     25867     25533     25782     25784     25633     25734     25484     25603     25579     25560 
dram[4]:     25610     25518     25962     25881     25746     25915     25601     25639     25744     25748     25603     25803     25501     25661     25562     25652 
dram[5]:     25581     25486     25713     25796     25728     25814     25582     25744     25836     25874     25682     25699     25581     25535     25541     25631 
dram[6]:     25479     25472     25855     25881     26002     25692     25561     25705     25796     25808     25610     25694     25587     25708     25633     25616 
dram[7]:     25455     25575     25769     25860     25647     25765     25703     25990     25775     25846     25611     25651     25660     25651     25609     25593 
dram[8]:     25446     25605     25841     25861     25750     25813     25978     25860     25808     25628     25788     25484     25556     25502     25567     25820 
dram[9]:     25523     25735     25850     25871     25707     25884     25722     25989     25570     25671     25612     25834     25386     25516     25587     25652 
dram[10]:     25601     25803     25944     25768     25787     25791     25988     25830     25857     25609     25797     25751     25483     25571     25721     25661 
dram[11]:     25823     25606     25857     25852     25718     25590     25913     26011     25890     25712     25711     25599     25640     25637     25743     25561 
total dram reads = 4936300
bank skew: 26110/25386 = 1.03
chip skew: 411962/410823 = 1.00
number of total write accesses:
dram[0]:      6080      6046      6062      6160      6065      6152      6266      6211      6045      6182      6053      6024      6044      6127      6025      6072 
dram[1]:      6107      5966      6106      6128      6238      6269      6188      6202      6088      6031      6032      6061      6033      6028      6056      6027 
dram[2]:      5941      5971      6162      6109      6252      6192      6147      6108      6025      6089      6038      6059      6130      6117      6034      6041 
dram[3]:      5975      6045      6220      6088      6008      6126      6144      5924      6151      6148      6065      6110      5990      6035      6025      6034 
dram[4]:      6123      5955      6178      6109      6066      6195      6001      6022      6105      6108      6052      6148      6018      6093      6001      6083 
dram[5]:      6007      5936      6062      6093      6090      6080      6007      6068      6157      6200      6045      6098      6031      6000      5980      6053 
dram[6]:      5920      5958      6165      6202      6173      6086      6030      6078      6124      6184      6007      6020      6011      6073      6051      6071 
dram[7]:      5968      6010      6041      6138      6028      6117      6038      6166      6098      6090      6084      6073      6065      6037      6061      5993 
dram[8]:      5956      6098      6127      6127      6042      6115      6238      6151      6175      6085      6196      5951      6034      5972      5979      6145 
dram[9]:      5965      6057      6118      6077      6088      6171      6081      6233      6087      6065      5976      6116      5948      5992      6086      6126 
dram[10]:      6005      6138      6157      6077      6184      6094      6242      6184      6159      5992      6131      6055      5952      6117      6067      6019 
dram[11]:      6145      5985      6096      6067      6092      5961      6179      6263      6216      6068      6077      6020      6106      6101      6103      6060 
total dram writes = 1167690
bank skew: 6269/5920 = 1.06
chip skew: 97614/96907 = 1.01
average mf latency per bank:
dram[0]:        691       694       686       685       690       690       683       688       691       689       690       691       691       689       692       691
dram[1]:        693       697       689       689       687       686       690       690       692       695       693       692       694       694       694       694
dram[2]:        697       698       688       691       687       690       690       694       696       694       693       695       689       692       693       697
dram[3]:        697       696       688       692       694       693       691       700       694       694       696       693       696       694       698       698
dram[4]:        695       702       695       696       697       695       700       700       699       701       699       697       699       697       700       702
dram[5]:        696       697       690       688       691       693       697       693       692       690       698       694       694       694       698       695
dram[6]:        695       696       685       684       686       692       695       692       691       690       695       695       693       692       691       692
dram[7]:        696       696       690       691       694       690       694       692       693       692       693       694       695       692       695       697
dram[8]:        697       695       690       691       693       692       692       694       690       698       690       700       695       699       698       692
dram[9]:        730       697       721       692       724       693       726       691       726       695       728       694     47139       698       726       695
dram[10]:        697       689       688       689       689       688       690       690       691       695       693       693       698       692       694       693
dram[11]:        690       695       687       688       689       693       688       685       686       692       690       691       690       692       692       692
maximum mf latency per bank:
dram[0]:       1018       900       610       742       710       850       547       608       792       696       797      1014       689       656       861       554
dram[1]:        866       849       798       669       784       571       565       724       615       832       975       867       817       697       832       744
dram[2]:        841       881       767       743       591       591       603       613       791       792       847       796       701       767       597       742
dram[3]:        907       945       614       829       751       590       589       557       770       647       833       800       804       682       808       810
dram[4]:       1131      1015       829       647       725       741       657       687       859       611       925      1014       717       697       755       800
dram[5]:        911       845       641       660       677       807       578       590       541       707       956       957       756       707       654       759
dram[6]:        888       949       715       637       741       847       589       637       670       664       895       848       688       789       636       602
dram[7]:       1107      1000       614       799       632       795       656       595       686       614       787       778       789       730       693       607
dram[8]:        955       971       609       618       784       727       563       590       620       586       794       909       730       686       701       917
dram[9]:       1025       917       604       913       817       791       587       571       792       776       988       916      1022       686       915       568
dram[10]:        867       896       916       812       858       834       528       642       667       787       822       785       853       837       807       784
dram[11]:        861      1116       765       621       806       655       632       633       709       628       678       783       793       801       566       676

Number of Memory Banks Accessed per Memory Operation per Warp (from 0):
0	0	0	0	0	0	0	0	0	0	0	0	0	0	0	0	0	0	0	0	0	0	0	0	0	0	0	0	0	0	0	0	0	0	0	0	0	0	0	0	0	0	0	0	0	0	0	0	0	0	0	0	0	0	0	0	0	0	0	0	0	0	0	0	0	0	0	0	0	0	0	0	0	0	0	0	0	0	0	0	0	0	0	0	0	0	0	0	0	0	0	0	0	0	0	0	0	0	0	0	0	0	0	0	0	0	0	0	0	0	0	0	0	0	0	0	0	0	0	0	0	0	0	0	0	0	0	0	0	0	0	0	0	0	0	0	0	0	0	0	0	0	0	0	0	0	0	0	0	0	0	0	0	0	0	0	0	0	0	0	0	0	0	0	0	0	0	0	0	0	0	0	0	0	0	0	0	0	0	0	0	0	0	0	0	0	0	0	0	0	0	0	
Average # of Memory Banks Accessed per Memory Operation per Warp=-nan

position of mrq chosen
0	0	0	0	0	0	0	0	0	0	0	0	0	0	0	0	0	0	0	0	0	0	0	0	0	0	0	0	0	0	0	0	0	0	0	0	0	0	0	0	0	0	0	0	0	0	0	0	0	0	0	0	0	0	0	0	0	0	0	0	0	0	0	0	

average position of mrq chosen = -nan
Memory Partition 0: 
Cache L2_bank_000:
MSHR contents

Cache L2_bank_001:
MSHR contents

In Dram Latency Queue (total = 0): 
DRAM[0]: 16 bks, busW=2 BL=16 CL=24, tRRD=12 tCCD=4, tRCD=24 tRAS=55 tRP=24 tRC=78
n_cmd=19284352 n_nop=18511569 n_act=133308 n_pre=133292 n_ref_event=0 n_req=451518 n_rd=411726 n_rd_L2_A=0 n_write=0 n_wr_bk=97614 bw_util=0.1056
n_activity=10718518 dram_eff=0.1901
bk0: 25706a 18738498i bk1: 25681a 18738353i bk2: 25770a 18731462i bk3: 25836a 18725852i bk4: 25707a 18719679i bk5: 25779a 18715600i bk6: 26110a 18660387i bk7: 26016a 18662570i bk8: 25713a 18706529i bk9: 25821a 18698982i bk10: 25625a 18731482i bk11: 25717a 18728387i bk12: 25569a 18732387i bk13: 25544a 18737464i bk14: 25561a 18728629i bk15: 25571a 18737259i 

------------------------------------------------------------------------

Row_Buffer_Locality = 0.704760
Row_Buffer_Locality_read = 0.764093
Row_Buffer_Locality_write = 0.090847
Bank_Level_Parallism = 1.481186
Bank_Level_Parallism_Col = 1.262239
Bank_Level_Parallism_Ready = 1.035006
write_to_read_ratio_blp_rw_average = 0.298199
GrpLevelPara = 1.194626 

BW Util details:
bwutil = 0.105648 
total_CMD = 19284352 
util_bw = 2037360 
Wasted_Col = 2982936 
Wasted_Row = 1934943 
Idle = 12329113 

BW Util Bottlenecks: 
RCDc_limit = 2052278 
RCDWRc_limit = 421398 
WTRc_limit = 472066 
RTWc_limit = 713070 
CCDLc_limit = 332431 
rwq = 0 
CCDLc_limit_alone = 278086 
WTRc_limit_alone = 452262 
RTWc_limit_alone = 678529 

Commands details: 
total_CMD = 19284352 
n_nop = 18511569 
Read = 411726 
Write = 0 
L2_Alloc = 0 
L2_WB = 97614 
n_act = 133308 
n_pre = 133292 
n_ref = 0 
n_req = 451518 
total_req = 509340 

Dual Bus Interface Util: 
issued_total_row = 266600 
issued_total_col = 509340 
Row_Bus_Util =  0.013825 
CoL_Bus_Util = 0.026412 
Either_Row_CoL_Bus_Util = 0.040073 
Issued_on_Two_Bus_Simul_Util = 0.000164 
issued_two_Eff = 0.004085 
queue_avg = 0.154177 


dram_util_bins: 0 0 0 0 0 0 0 0 0 0
dram_eff_bins: 0 0 0 0 0 0 0 0 0 0
mrqq: max=16 avg=0.154177
Memory Partition 1: 
Cache L2_bank_002:
MSHR contents

Cache L2_bank_003:
MSHR contents

In Dram Latency Queue (total = 0): 
DRAM[1]: 16 bks, busW=2 BL=16 CL=24, tRRD=12 tCCD=4, tRCD=24 tRAS=55 tRP=24 tRC=78
n_cmd=19284352 n_nop=18510766 n_act=133712 n_pre=133696 n_ref_event=0 n_req=451272 n_rd=411670 n_rd_L2_A=0 n_write=0 n_wr_bk=97560 bw_util=0.1056
n_activity=10841498 dram_eff=0.1879
bk0: 25703a 18736205i bk1: 25531a 18750432i bk2: 25771a 18736711i bk3: 25860a 18728146i bk4: 25938a 18706176i bk5: 25935a 18708809i bk6: 25909a 18669441i bk7: 26058a 18659530i bk8: 25772a 18698074i bk9: 25707a 18702615i bk10: 25658a 18735641i bk11: 25659a 18737582i bk12: 25521a 18742244i bk13: 25489a 18729164i bk14: 25588a 18737889i bk15: 25571a 18736108i 

------------------------------------------------------------------------

Row_Buffer_Locality = 0.703704
Row_Buffer_Locality_read = 0.762650
Row_Buffer_Locality_write = 0.090955
Bank_Level_Parallism = 1.469292
Bank_Level_Parallism_Col = 1.000000
Bank_Level_Parallism_Ready = 1.033362
write_to_read_ratio_blp_rw_average = 0.000000
GrpLevelPara = 0.000000 

BW Util details:
bwutil = 0.105626 
total_CMD = 19284352 
util_bw = 2036920 
Wasted_Col = 2999222 
Wasted_Row = 1966472 
Idle = 12281738 

BW Util Bottlenecks: 
RCDc_limit = 2071883 
RCDWRc_limit = 420797 
WTRc_limit = 463696 
RTWc_limit = 700642 
CCDLc_limit = 330261 
rwq = 0 
CCDLc_limit_alone = 277586 
WTRc_limit_alone = 444352 
RTWc_limit_alone = 667311 

Commands details: 
total_CMD = 19284352 
n_nop = 18510766 
Read = 411670 
Write = 0 
L2_Alloc = 0 
L2_WB = 97560 
n_act = 133712 
n_pre = 133696 
n_ref = 0 
n_req = 451272 
total_req = 509230 

Dual Bus Interface Util: 
issued_total_row = 267408 
issued_total_col = 509230 
Row_Bus_Util =  0.013867 
CoL_Bus_Util = 0.026406 
Either_Row_CoL_Bus_Util = 0.040115 
Issued_on_Two_Bus_Simul_Util = 0.000158 
issued_two_Eff = 0.003945 
queue_avg = 0.149030 


dram_util_bins: 0 0 0 0 0 0 0 0 0 0
dram_eff_bins: 0 0 0 0 0 0 0 0 0 0
mrqq: max=16 avg=0.14903
Memory Partition 2: 
Cache L2_bank_004:
MSHR contents

Cache L2_bank_005:
MSHR contents

In Dram Latency Queue (total = 0): 
DRAM[2]: 16 bks, busW=2 BL=16 CL=24, tRRD=12 tCCD=4, tRCD=24 tRAS=55 tRP=24 tRC=78
n_cmd=19284352 n_nop=18509420 n_act=134495 n_pre=134479 n_ref_event=0 n_req=451177 n_rd=411548 n_rd_L2_A=0 n_write=0 n_wr_bk=97415 bw_util=0.1056
n_activity=10852524 dram_eff=0.1876
bk0: 25407a 18752296i bk1: 25413a 18749472i bk2: 25864a 18713725i bk3: 25828a 18722469i bk4: 25969a 18697857i bk5: 25851a 18710031i bk6: 25902a 18674562i bk7: 25820a 18678006i bk8: 25695a 18708676i bk9: 25851a 18694096i bk10: 25665a 18731640i bk11: 25679a 18733411i bk12: 25667a 18723960i bk13: 25661a 18723081i bk14: 25631a 18728940i bk15: 25645a 18729481i 

------------------------------------------------------------------------

Row_Buffer_Locality = 0.701906
Row_Buffer_Locality_read = 0.761073
Row_Buffer_Locality_write = 0.087461
Bank_Level_Parallism = 1.471636
Bank_Level_Parallism_Col = 1.254486
Bank_Level_Parallism_Ready = 1.032105
write_to_read_ratio_blp_rw_average = 0.295995
GrpLevelPara = 1.188407 

BW Util details:
bwutil = 0.105570 
total_CMD = 19284352 
util_bw = 2035852 
Wasted_Col = 3014867 
Wasted_Row = 1967516 
Idle = 12266117 

BW Util Bottlenecks: 
RCDc_limit = 2085950 
RCDWRc_limit = 421809 
WTRc_limit = 466315 
RTWc_limit = 706413 
CCDLc_limit = 332373 
rwq = 0 
CCDLc_limit_alone = 279436 
WTRc_limit_alone = 446976 
RTWc_limit_alone = 672815 

Commands details: 
total_CMD = 19284352 
n_nop = 18509420 
Read = 411548 
Write = 0 
L2_Alloc = 0 
L2_WB = 97415 
n_act = 134495 
n_pre = 134479 
n_ref = 0 
n_req = 451177 
total_req = 508963 

Dual Bus Interface Util: 
issued_total_row = 268974 
issued_total_col = 508963 
Row_Bus_Util =  0.013948 
CoL_Bus_Util = 0.026393 
Either_Row_CoL_Bus_Util = 0.040184 
Issued_on_Two_Bus_Simul_Util = 0.000156 
issued_two_Eff = 0.003878 
queue_avg = 0.151799 


dram_util_bins: 0 0 0 0 0 0 0 0 0 0
dram_eff_bins: 0 0 0 0 0 0 0 0 0 0
mrqq: max=18 avg=0.151799
Memory Partition 3: 
Cache L2_bank_006:
MSHR contents

Cache L2_bank_007:
MSHR contents

In Dram Latency Queue (total = 0): 
DRAM[3]: 16 bks, busW=2 BL=16 CL=24, tRRD=12 tCCD=4, tRCD=24 tRAS=55 tRP=24 tRC=78
n_cmd=19284352 n_nop=18514480 n_act=132447 n_pre=132431 n_ref_event=0 n_req=450326 n_rd=410887 n_rd_L2_A=0 n_write=0 n_wr_bk=97088 bw_util=0.1054
n_activity=10767031 dram_eff=0.1887
bk0: 25442a 18754339i bk1: 25501a 18749624i bk2: 26055a 18706744i bk3: 25915a 18724220i bk4: 25672a 18723690i bk5: 25743a 18726707i bk6: 25867a 18673206i bk7: 25533a 18722006i bk8: 25782a 18688648i bk9: 25784a 18696590i bk10: 25633a 18735356i bk11: 25734a 18738718i bk12: 25484a 18735688i bk13: 25603a 18737195i bk14: 25579a 18739202i bk15: 25560a 18737383i 

------------------------------------------------------------------------

Row_Buffer_Locality = 0.705891
Row_Buffer_Locality_read = 0.764948
Row_Buffer_Locality_write = 0.090621
Bank_Level_Parallism = 1.469040
Bank_Level_Parallism_Col = 1.253589
Bank_Level_Parallism_Ready = 1.032930
write_to_read_ratio_blp_rw_average = 0.298127
GrpLevelPara = 1.188505 

BW Util details:
bwutil = 0.105365 
total_CMD = 19284352 
util_bw = 2031900 
Wasted_Col = 2979190 
Wasted_Row = 1938893 
Idle = 12334369 

BW Util Bottlenecks: 
RCDc_limit = 2048284 
RCDWRc_limit = 419422 
WTRc_limit = 461401 
RTWc_limit = 702435 
CCDLc_limit = 330687 
rwq = 0 
CCDLc_limit_alone = 278601 
WTRc_limit_alone = 442254 
RTWc_limit_alone = 669496 

Commands details: 
total_CMD = 19284352 
n_nop = 18514480 
Read = 410887 
Write = 0 
L2_Alloc = 0 
L2_WB = 97088 
n_act = 132447 
n_pre = 132431 
n_ref = 0 
n_req = 450326 
total_req = 507975 

Dual Bus Interface Util: 
issued_total_row = 264878 
issued_total_col = 507975 
Row_Bus_Util =  0.013735 
CoL_Bus_Util = 0.026341 
Either_Row_CoL_Bus_Util = 0.039922 
Issued_on_Two_Bus_Simul_Util = 0.000155 
issued_two_Eff = 0.003872 
queue_avg = 0.148905 


dram_util_bins: 0 0 0 0 0 0 0 0 0 0
dram_eff_bins: 0 0 0 0 0 0 0 0 0 0
mrqq: max=16 avg=0.148905
Memory Partition 4: 
Cache L2_bank_008:
MSHR contents

Cache L2_bank_009:
MSHR contents

In Dram Latency Queue (total = 0): 
DRAM[4]: 16 bks, busW=2 BL=16 CL=24, tRRD=12 tCCD=4, tRCD=24 tRAS=55 tRP=24 tRC=78
n_cmd=19284352 n_nop=18514219 n_act=132387 n_pre=132371 n_ref_event=0 n_req=450539 n_rd=411146 n_rd_L2_A=0 n_write=0 n_wr_bk=97257 bw_util=0.1055
n_activity=10723157 dram_eff=0.1896
bk0: 25610a 18737904i bk1: 25518a 18753101i bk2: 25962a 18714475i bk3: 25881a 18724705i bk4: 25746a 18729497i bk5: 25915a 18714222i bk6: 25601a 18700350i bk7: 25639a 18682894i bk8: 25744a 18707311i bk9: 25748a 18694562i bk10: 25603a 18746647i bk11: 25803a 18724687i bk12: 25501a 18746722i bk13: 25661a 18726060i bk14: 25562a 18745098i bk15: 25652a 18731354i 

------------------------------------------------------------------------

Row_Buffer_Locality = 0.706163
Row_Buffer_Locality_read = 0.765052
Row_Buffer_Locality_write = 0.091539
Bank_Level_Parallism = 1.471276
Bank_Level_Parallism_Col = 1.254659
Bank_Level_Parallism_Ready = 1.033660
write_to_read_ratio_blp_rw_average = 0.295977
GrpLevelPara = 1.189017 

BW Util details:
bwutil = 0.105454 
total_CMD = 19284352 
util_bw = 2033612 
Wasted_Col = 2974091 
Wasted_Row = 1934496 
Idle = 12342153 

BW Util Bottlenecks: 
RCDc_limit = 2046792 
RCDWRc_limit = 418787 
WTRc_limit = 460647 
RTWc_limit = 693026 
CCDLc_limit = 335671 
rwq = 0 
CCDLc_limit_alone = 283178 
WTRc_limit_alone = 441147 
RTWc_limit_alone = 660033 

Commands details: 
total_CMD = 19284352 
n_nop = 18514219 
Read = 411146 
Write = 0 
L2_Alloc = 0 
L2_WB = 97257 
n_act = 132387 
n_pre = 132371 
n_ref = 0 
n_req = 450539 
total_req = 508403 

Dual Bus Interface Util: 
issued_total_row = 264758 
issued_total_col = 508403 
Row_Bus_Util =  0.013729 
CoL_Bus_Util = 0.026363 
Either_Row_CoL_Bus_Util = 0.039936 
Issued_on_Two_Bus_Simul_Util = 0.000157 
issued_two_Eff = 0.003932 
queue_avg = 0.150369 


dram_util_bins: 0 0 0 0 0 0 0 0 0 0
dram_eff_bins: 0 0 0 0 0 0 0 0 0 0
mrqq: max=17 avg=0.150369
Memory Partition 5: 
Cache L2_bank_010:
MSHR contents

Cache L2_bank_011:
MSHR contents

In Dram Latency Queue (total = 0): 
DRAM[5]: 16 bks, busW=2 BL=16 CL=24, tRRD=12 tCCD=4, tRCD=24 tRAS=55 tRP=24 tRC=78
n_cmd=19284352 n_nop=18512917 n_act=133452 n_pre=133436 n_ref_event=0 n_req=450044 n_rd=410823 n_rd_L2_A=0 n_write=0 n_wr_bk=96907 bw_util=0.1053
n_activity=10623477 dram_eff=0.1912
bk0: 25581a 18737266i bk1: 25486a 18744187i bk2: 25713a 18727866i bk3: 25796a 18718745i bk4: 25728a 18713473i bk5: 25814a 18710379i bk6: 25582a 18685520i bk7: 25744a 18668262i bk8: 25836a 18683337i bk9: 25874a 18679162i bk10: 25682a 18725745i bk11: 25699a 18723929i bk12: 25581a 18727267i bk13: 25535a 18735130i bk14: 25541a 18737734i bk15: 25631a 18726689i 

------------------------------------------------------------------------

Row_Buffer_Locality = 0.703473
Row_Buffer_Locality_read = 0.762194
Row_Buffer_Locality_write = 0.088397
Bank_Level_Parallism = 1.488488
Bank_Level_Parallism_Col = 1.268565
Bank_Level_Parallism_Ready = 1.037561
write_to_read_ratio_blp_rw_average = 0.294988
GrpLevelPara = 1.198704 

BW Util details:
bwutil = 0.105314 
total_CMD = 19284352 
util_bw = 2030920 
Wasted_Col = 2981906 
Wasted_Row = 1925523 
Idle = 12346003 

BW Util Bottlenecks: 
RCDc_limit = 2061291 
RCDWRc_limit = 413700 
WTRc_limit = 473115 
RTWc_limit = 708673 
CCDLc_limit = 337546 
rwq = 0 
CCDLc_limit_alone = 283814 
WTRc_limit_alone = 453155 
RTWc_limit_alone = 674901 

Commands details: 
[...]

Commands details: 
total_CMD = 75718324 
n_nop = 72459952 
Read = 1960898 
Write = 0 
L2_Alloc = 0 
L2_WB = 363496 
n_act = 475275 
n_pre = 475259 
n_ref = 0 
n_req = 2073368 
total_req = 2324394 

Dual Bus Interface Util: 
issued_total_row = 950534 
issued_total_col = 2324394 
Row_Bus_Util =  0.012554 
CoL_Bus_Util = 0.030698 
Either_Row_CoL_Bus_Util = 0.043033 
Issued_on_Two_Bus_Simul_Util = 0.000219 
issued_two_Eff = 0.005081 
queue_avg = 0.864198 


dram_util_bins: 0 0 0 0 0 0 0 0 0 0
dram_eff_bins: 0 0 0 0 0 0 0 0 0 0
mrqq: max=64 avg=0.864198
Memory Partition 8: 
Cache L2_bank_016:
MSHR contents

Cache L2_bank_017:
MSHR contents

In Dram Latency Queue (total = 0): 
DRAM[8]: 16 bks, busW=2 BL=16 CL=24, tRRD=12 tCCD=4, tRCD=24 tRAS=55 tRP=24 tRC=78
n_cmd=75718324 n_nop=72464408 n_act=473386 n_pre=473370 n_ref_event=0 n_req=2072825 n_rd=1960269 n_rd_L2_A=0 n_write=0 n_wr_bk=363249 bw_util=0.1227
n_activity=40894588 dram_eff=0.2273
bk0: 121306a 73353875i bk1: 121984a 73276396i bk2: 123288a 73225521i bk3: 123292a 73233443i bk4: 122812a 73207599i bk5: 122967a 73177958i bk6: 123668a 72992311i bk7: 123320a 73002212i bk8: 122698a 73125649i bk9: 122026a 73142867i bk10: 122643a 73269202i bk11: 121561a 73341239i bk12: 121884a 73283153i bk13: 121711a 73302496i bk14: 121996a 73287290i bk15: 123113a 73212806i 

------------------------------------------------------------------------

Row_Buffer_Locality = 0.771624
Row_Buffer_Locality_read = 0.798920
Row_Buffer_Locality_write = 0.296226
Bank_Level_Parallism = 1.839558
Bank_Level_Parallism_Col = 1.759857
Bank_Level_Parallism_Ready = 1.174499
write_to_read_ratio_blp_rw_average = 0.200256
GrpLevelPara = 1.468181 

BW Util details:
bwutil = 0.122745 
total_CMD = 75718324 
util_bw = 9294072 
Wasted_Col = 9544147 
Wasted_Row = 6588282 
Idle = 50291823 

BW Util Bottlenecks: 
RCDc_limit = 7939769 
RCDWRc_limit = 680944 
WTRc_limit = 1285512 
RTWc_limit = 1839962 
CCDLc_limit = 1261378 
rwq = 0 
CCDLc_limit_alone = 1094779 
WTRc_limit_alone = 1218236 
RTWc_limit_alone = 1740639 

Commands details: 
total_CMD = 75718324 
n_nop = 72464408 
Read = 1960269 
Write = 0 
L2_Alloc = 0 
L2_WB = 363249 
n_act = 473386 
n_pre = 473370 
n_ref = 0 
n_req = 2072825 
total_req = 2323518 

Dual Bus Interface Util: 
issued_total_row = 946756 
issued_total_col = 2323518 
Row_Bus_Util =  0.012504 
CoL_Bus_Util = 0.030686 
Either_Row_CoL_Bus_Util = 0.042974 
Issued_on_Two_Bus_Simul_Util = 0.000216 
issued_two_Eff = 0.005027 
queue_avg = 0.832636 


dram_util_bins: 0 0 0 0 0 0 0 0 0 0
dram_eff_bins: 0 0 0 0 0 0 0 0 0 0
mrqq: max=64 avg=0.832636
Memory Partition 9: 
Cache L2_bank_018:
MSHR contents

Cache L2_bank_019:
MSHR contents

In Dram Latency Queue (total = 0): 
DRAM[9]: 16 bks, busW=2 BL=16 CL=24, tRRD=12 tCCD=4, tRCD=24 tRAS=55 tRP=24 tRC=78
n_cmd=75718324 n_nop=72471714 n_act=469958 n_pre=469942 n_ref_event=0 n_req=2072137 n_rd=1959795 n_rd_L2_A=0 n_write=0 n_wr_bk=363140 bw_util=0.1227
n_activity=40789059 dram_eff=0.2278
bk0: 121641a 73308967i bk1: 122666a 73270214i bk2: 123196a 73249409i bk3: 123559a 73224995i bk4: 122482a 73225899i bk5: 123364a 73174381i bk6: 122814a 73057441i bk7: 123743a 73008748i bk8: 121776a 73190631i bk9: 122142a 73155637i bk10: 122023a 73322662i bk11: 123135a 73242322i bk12: 121186a 73351827i bk13: 121766a 73318632i bk14: 121970a 73295201i bk15: 122332a 73270219i 

------------------------------------------------------------------------

Row_Buffer_Locality = 0.773202
Row_Buffer_Locality_read = 0.800328
Row_Buffer_Locality_write = 0.300004
Bank_Level_Parallism = 1.839608
Bank_Level_Parallism_Col = 1.760938
Bank_Level_Parallism_Ready = 1.174242
write_to_read_ratio_blp_rw_average = 0.201412
GrpLevelPara = 1.472043 

BW Util details:
bwutil = 0.122715 
total_CMD = 75718324 
util_bw = 9291740 
Wasted_Col = 9478903 
Wasted_Row = 6539668 
Idle = 50408013 

BW Util Bottlenecks: 
RCDc_limit = 7871010 
RCDWRc_limit = 673514 
WTRc_limit = 1312833 
RTWc_limit = 1857301 
CCDLc_limit = 1237868 
rwq = 0 
CCDLc_limit_alone = 1070608 
WTRc_limit_alone = 1244016 
RTWc_limit_alone = 1758858 

Commands details: 
total_CMD = 75718324 
n_nop = 72471714 
Read = 1959795 
Write = 0 
L2_Alloc = 0 
L2_WB = 363140 
n_act = 469958 
n_pre = 469942 
n_ref = 0 
n_req = 2072137 
total_req = 2322935 

Dual Bus Interface Util: 
issued_total_row = 939900 
issued_total_col = 2322935 
Row_Bus_Util =  0.012413 
CoL_Bus_Util = 0.030679 
Either_Row_CoL_Bus_Util = 0.042877 
Issued_on_Two_Bus_Simul_Util = 0.000214 
issued_two_Eff = 0.004998 
queue_avg = 0.818736 


dram_util_bins: 0 0 0 0 0 0 0 0 0 0
dram_eff_bins: 0 0 0 0 0 0 0 0 0 0
mrqq: max=64 avg=0.818736
Memory Partition 10: 
Cache L2_bank_020:
MSHR contents

Cache L2_bank_021:
MSHR contents

In Dram Latency Queue (total = 0): 
DRAM[10]: 16 bks, busW=2 BL=16 CL=24, tRRD=12 tCCD=4, tRCD=24 tRAS=55 tRP=24 tRC=78
n_cmd=75718324 n_nop=72457877 n_act=474754 n_pre=474738 n_ref_event=0 n_req=2077015 n_rd=1964277 n_rd_L2_A=0 n_write=0 n_wr_bk=363529 bw_util=0.123
n_activity=40922342 dram_eff=0.2275
bk0: 122013a 73292419i bk1: 122891a 73237273i bk2: 123692a 73205765i bk3: 123028a 73244919i bk4: 122779a 73219384i bk5: 123097a 73191012i bk6: 123705a 73000924i bk7: 123098a 73046755i bk8: 123212a 73116496i bk9: 122084a 73202173i bk10: 122863a 73261900i bk11: 122814a 73241241i bk12: 121717a 73290637i bk13: 121891a 73291723i bk14: 122864a 73247785i bk15: 122529a 73261232i 

------------------------------------------------------------------------

Row_Buffer_Locality = 0.771426
Row_Buffer_Locality_read = 0.798766
Row_Buffer_Locality_write = 0.295074
Bank_Level_Parallism = 1.843049
Bank_Level_Parallism_Col = 1.760567
Bank_Level_Parallism_Ready = 1.172290
write_to_read_ratio_blp_rw_average = 0.199245
GrpLevelPara = 1.472877 

BW Util details:
bwutil = 0.122972 
total_CMD = 75718324 
util_bw = 9311224 
Wasted_Col = 9532925 
Wasted_Row = 6590359 
Idle = 50283816 

BW Util Bottlenecks: 
RCDc_limit = 7946681 
RCDWRc_limit = 678919 
WTRc_limit = 1308798 
RTWc_limit = 1843785 
CCDLc_limit = 1243661 
rwq = 0 
CCDLc_limit_alone = 1077117 
WTRc_limit_alone = 1240370 
RTWc_limit_alone = 1745669 

Commands details: 
total_CMD = 75718324 
n_nop = 72457877 
Read = 1964277 
Write = 0 
L2_Alloc = 0 
L2_WB = 363529 
n_act = 474754 
n_pre = 474738 
n_ref = 0 
n_req = 2077015 
total_req = 2327806 

Dual Bus Interface Util: 
issued_total_row = 949492 
issued_total_col = 2327806 
Row_Bus_Util =  0.012540 
CoL_Bus_Util = 0.030743 
Either_Row_CoL_Bus_Util = 0.043060 
Issued_on_Two_Bus_Simul_Util = 0.000223 
issued_two_Eff = 0.005168 
queue_avg = 0.804195 


dram_util_bins: 0 0 0 0 0 0 0 0 0 0
dram_eff_bins: 0 0 0 0 0 0 0 0 0 0
mrqq: max=64 avg=0.804195
Memory Partition 11: 
Cache L2_bank_022:
MSHR contents

Cache L2_bank_023:
MSHR contents

In Dram Latency Queue (total = 0): 
DRAM[11]: 16 bks, busW=2 BL=16 CL=24, tRRD=12 tCCD=4, tRCD=24 tRAS=55 tRP=24 tRC=78
n_cmd=75718324 n_nop=72466493 n_act=470948 n_pre=470932 n_ref_event=0 n_req=2075362 n_rd=1962651 n_rd_L2_A=0 n_write=0 n_wr_bk=363650 bw_util=0.1229
n_activity=40932518 dram_eff=0.2273
bk0: 122960a 73242035i bk1: 121917a 73325286i bk2: 123397a 73248840i bk3: 123158a 73252890i bk4: 122780a 73240053i bk5: 122071a 73271387i bk6: 123303a 73058547i bk7: 123794a 73025884i bk8: 123121a 73127399i bk9: 122546a 73156086i bk10: 122383a 73306050i bk11: 122000a 73321467i bk12: 122336a 73276511i bk13: 122205a 73271282i bk14: 122790a 73251840i bk15: 121890a 73317573i 

------------------------------------------------------------------------

Row_Buffer_Locality = 0.773078
Row_Buffer_Locality_read = 0.800207
Row_Buffer_Locality_write = 0.300672
Bank_Level_Parallism = 1.834446
Bank_Level_Parallism_Col = 1.752557
Bank_Level_Parallism_Ready = 1.168737
write_to_read_ratio_blp_rw_average = 0.200865
GrpLevelPara = 1.470792 

BW Util details:
bwutil = 0.122892 
total_CMD = 75718324 
util_bw = 9305204 
Wasted_Col = 9499180 
Wasted_Row = 6568427 
Idle = 50345513 

BW Util Bottlenecks: 
RCDc_limit = 7900249 
RCDWRc_limit = 676747 
WTRc_limit = 1292394 
RTWc_limit = 1842647 
CCDLc_limit = 1239129 
rwq = 0 
CCDLc_limit_alone = 1074879 
WTRc_limit_alone = 1225633 
RTWc_limit_alone = 1745158 

Commands details: 
total_CMD = 75718324 
n_nop = 72466493 
Read = 1962651 
Write = 0 
L2_Alloc = 0 
L2_WB = 363650 
n_act = 470948 
n_pre = 470932 
n_ref = 0 
n_req = 2075362 
total_req = 2326301 

Dual Bus Interface Util: 
issued_total_row = 941880 
issued_total_col = 2326301 
Row_Bus_Util =  0.012439 
CoL_Bus_Util = 0.030723 
Either_Row_CoL_Bus_Util = 0.042946 
Issued_on_Two_Bus_Simul_Util = 0.000216 
issued_two_Eff = 0.005028 
queue_avg = 0.812813 


dram_util_bins: 0 0 0 0 0 0 0 0 0 0
dram_eff_bins: 0 0 0 0 0 0 0 0 0 0
mrqq: max=64 avg=0.812813

========= L2 cache stats =========
L2_cache_bank[0]: Access = 2219316, Miss = 981333, Miss_rate = 0.442, Pending_hits = 115540, Reservation_fails = 4192
L2_cache_bank[1]: Access = 2295202, Miss = 981934, Miss_rate = 0.428, Pending_hits = 115912, Reservation_fails = 3668
L2_cache_bank[2]: Access = 2286840, Miss = 981552, Miss_rate = 0.429, Pending_hits = 116268, Reservation_fails = 3764
L2_cache_bank[3]: Access = 2282042, Miss = 981323, Miss_rate = 0.430, Pending_hits = 116519, Reservation_fails = 2560
L2_cache_bank[4]: Access = 2290898, Miss = 981773, Miss_rate = 0.429, Pending_hits = 116512, Reservation_fails = 5226
L2_cache_bank[5]: Access = 2283334, Miss = 980598, Miss_rate = 0.429, Pending_hits = 117316, Reservation_fails = 3032
L2_cache_bank[6]: Access = 2286365, Miss = 979782, Miss_rate = 0.429, Pending_hits = 116898, Reservation_fails = 2972
L2_cache_bank[7]: Access = 2289656, Miss = 978921, Miss_rate = 0.428, Pending_hits = 115847, Reservation_fails = 2631
L2_cache_bank[8]: Access = 2214592, Miss = 978468, Miss_rate = 0.442, Pending_hits = 117065, Reservation_fails = 2883
L2_cache_bank[9]: Access = 2298955, Miss = 981631, Miss_rate = 0.427, Pending_hits = 115978, Reservation_fails = 5918
L2_cache_bank[10]: Access = 2291804, Miss = 978505, Miss_rate = 0.427, Pending_hits = 115202, Reservation_fails = 2803
L2_cache_bank[11]: Access = 2281288, Miss = 979863, Miss_rate = 0.430, Pending_hits = 115425, Reservation_fails = 3982
L2_cache_bank[12]: Access = 2285260, Miss = 979986, Miss_rate = 0.429, Pending_hits = 115405, Reservation_fails = 3635
L2_cache_bank[13]: Access = 2284796, Miss = 980193, Miss_rate = 0.429, Pending_hits = 115576, Reservation_fails = 2220
L2_cache_bank[14]: Access = 2288347, Miss = 978786, Miss_rate = 0.428, Pending_hits = 116380, Reservation_fails = 4685
L2_cache_bank[15]: Access = 2298576, Miss = 982116, Miss_rate = 0.427, Pending_hits = 116537, Reservation_fails = 2277
L2_cache_bank[16]: Access = 2214150, Miss = 980297, Miss_rate = 0.443, Pending_hits = 115313, Reservation_fails = 3191
L2_cache_bank[17]: Access = 2297467, Miss = 979975, Miss_rate = 0.427, Pending_hits = 116609, Reservation_fails = 3142
L2_cache_bank[18]: Access = 8383893, Miss = 977098, Miss_rate = 0.117, Pending_hits = 116056, Reservation_fails = 2312
L2_cache_bank[19]: Access = 2288547, Miss = 982707, Miss_rate = 0.429, Pending_hits = 116060, Reservation_fails = 2443
L2_cache_bank[20]: Access = 2287518, Miss = 982845, Miss_rate = 0.430, Pending_hits = 116779, Reservation_fails = 4336
L2_cache_bank[21]: Access = 2288324, Miss = 981433, Miss_rate = 0.429, Pending_hits = 115248, Reservation_fails = 2819
L2_cache_bank[22]: Access = 2291078, Miss = 983071, Miss_rate = 0.429, Pending_hits = 115154, Reservation_fails = 4340
L2_cache_bank[23]: Access = 2293230, Miss = 979581, Miss_rate = 0.427, Pending_hits = 116070, Reservation_fails = 3050
L2_total_cache_accesses = 60821478
L2_total_cache_misses = 23533771
L2_total_cache_miss_rate = 0.3869
L2_total_cache_pending_hits = 2785669
L2_total_cache_reservation_fails = 82081
L2_total_cache_breakdown:
	L2_cache_stats_breakdown[GLOBAL_ACC_R][HIT] = 13704958
	L2_cache_stats_breakdown[GLOBAL_ACC_R][HIT_RESERVED] = 2785664
	L2_cache_stats_breakdown[GLOBAL_ACC_R][MISS] = 7497783
	L2_cache_stats_breakdown[GLOBAL_ACC_R][RESERVATION_FAIL] = 82081
	L2_cache_stats_breakdown[GLOBAL_ACC_R][SECTOR_MISS] = 16035958
	L2_cache_stats_breakdown[GLOBAL_ACC_R][MSHR_HIT] = 2785664
	L2_cache_stats_breakdown[LOCAL_ACC_R][HIT] = 0
	L2_cache_stats_breakdown[LOCAL_ACC_R][HIT_RESERVED] = 0
	L2_cache_stats_breakdown[LOCAL_ACC_R][MISS] = 0
	L2_cache_stats_breakdown[LOCAL_ACC_R][RESERVATION_FAIL] = 0
	L2_cache_stats_breakdown[LOCAL_ACC_R][SECTOR_MISS] = 0
	L2_cache_stats_breakdown[LOCAL_ACC_R][MSHR_HIT] = 0
	L2_cache_stats_breakdown[CONST_ACC_R][HIT] = 0
	L2_cache_stats_breakdown[CONST_ACC_R][HIT_RESERVED] = 0
	L2_cache_stats_breakdown[CONST_ACC_R][MISS] = 0
	L2_cache_stats_breakdown[CONST_ACC_R][RESERVATION_FAIL] = 0
	L2_cache_stats_breakdown[CONST_ACC_R][SECTOR_MISS] = 0
	L2_cache_stats_breakdown[CONST_ACC_R][MSHR_HIT] = 0
	L2_cache_stats_breakdown[TEXTURE_ACC_R][HIT] = 0
	L2_cache_stats_breakdown[TEXTURE_ACC_R][HIT_RESERVED] = 0
	L2_cache_stats_breakdown[TEXTURE_ACC_R][MISS] = 0
	L2_cache_stats_breakdown[TEXTURE_ACC_R][RESERVATION_FAIL] = 0
	L2_cache_stats_breakdown[TEXTURE_ACC_R][SECTOR_MISS] = 0
	L2_cache_stats_breakdown[TEXTURE_ACC_R][MSHR_HIT] = 0
	L2_cache_stats_breakdown[GLOBAL_ACC_W][HIT] = 20797080
	L2_cache_stats_breakdown[GLOBAL_ACC_W][HIT_RESERVED] = 5
	L2_cache_stats_breakdown[GLOBAL_ACC_W][MISS] = 25
	L2_cache_stats_breakdown[GLOBAL_ACC_W][RESERVATION_FAIL] = 0
	L2_cache_stats_breakdown[GLOBAL_ACC_W][SECTOR_MISS] = 5
	L2_cache_stats_breakdown[GLOBAL_ACC_W][MSHR_HIT] = 0
	L2_cache_stats_breakdown[LOCAL_ACC_W][HIT] = 0
	L2_cache_stats_breakdown[LOCAL_ACC_W][HIT_RESERVED] = 0
	L2_cache_stats_breakdown[LOCAL_ACC_W][MISS] = 0
	L2_cache_stats_breakdown[LOCAL_ACC_W][RESERVATION_FAIL] = 0
	L2_cache_stats_breakdown[LOCAL_ACC_W][SECTOR_MISS] = 0
	L2_cache_stats_breakdown[LOCAL_ACC_W][MSHR_HIT] = 0
	L2_cache_stats_breakdown[L1_WRBK_ACC][HIT] = 0
	L2_cache_stats_breakdown[L1_WRBK_ACC][HIT_RESERVED] = 0
	L2_cache_stats_breakdown[L1_WRBK_ACC][MISS] = 0
	L2_cache_stats_breakdown[L1_WRBK_ACC][RESERVATION_FAIL] = 0
	L2_cache_stats_breakdown[L1_WRBK_ACC][SECTOR_MISS] = 0
	L2_cache_stats_breakdown[L1_WRBK_ACC][MSHR_HIT] = 0
	L2_cache_stats_breakdown[L2_WRBK_ACC][HIT] = 0
	L2_cache_stats_breakdown[L2_WRBK_ACC][HIT_RESERVED] = 0
	L2_cache_stats_breakdown[L2_WRBK_ACC][MISS] = 0
	L2_cache_stats_breakdown[L2_WRBK_ACC][RESERVATION_FAIL] = 0
	L2_cache_stats_breakdown[L2_WRBK_ACC][SECTOR_MISS] = 0
	L2_cache_stats_breakdown[L2_WRBK_ACC][MSHR_HIT] = 0
	L2_cache_stats_breakdown[INST_ACC_R][HIT] = 0
	L2_cache_stats_breakdown[INST_ACC_R][HIT_RESERVED] = 0
	L2_cache_stats_breakdown[INST_ACC_R][MISS] = 0
	L2_cache_stats_breakdown[INST_ACC_R][RESERVATION_FAIL] = 0
	L2_cache_stats_breakdown[INST_ACC_R][SECTOR_MISS] = 0
	L2_cache_stats_breakdown[INST_ACC_R][MSHR_HIT] = 0
	L2_cache_stats_breakdown[L1_WR_ALLOC_R][HIT] = 0
	L2_cache_stats_breakdown[L1_WR_ALLOC_R][HIT_RESERVED] = 0
	L2_cache_stats_breakdown[L1_WR_ALLOC_R][MISS] = 0
	L2_cache_stats_breakdown[L1_WR_ALLOC_R][RESERVATION_FAIL] = 0
	L2_cache_stats_breakdown[L1_WR_ALLOC_R][SECTOR_MISS] = 0
	L2_cache_stats_breakdown[L1_WR_ALLOC_R][MSHR_HIT] = 0
	L2_cache_stats_breakdown[L2_WR_ALLOC_R][HIT] = 0
	L2_cache_stats_breakdown[L2_WR_ALLOC_R][HIT_RESERVED] = 0
	L2_cache_stats_breakdown[L2_WR_ALLOC_R][MISS] = 0
	L2_cache_stats_breakdown[L2_WR_ALLOC_R][RESERVATION_FAIL] = 0
	L2_cache_stats_breakdown[L2_WR_ALLOC_R][SECTOR_MISS] = 0
	L2_cache_stats_breakdown[L2_WR_ALLOC_R][MSHR_HIT] = 0
	L2_cache_stats_breakdown[GLOBAL_ACC_R][TOTAL_ACCESS] = 40024363
	L2_cache_stats_breakdown[GLOBAL_ACC_W][TOTAL_ACCESS] = 20797115
L2_total_cache_reservation_fail_breakdown:
	L2_cache_stats_fail_breakdown[GLOBAL_ACC_R][MSHR_MERGE_ENRTY_FAIL] = 82081
L2_cache_data_port_util = 0.049
L2_cache_fill_port_util = 0.033

icnt_total_pkts_mem_to_simt=60821478
icnt_total_pkts_simt_to_mem=60821478
LD_mem_lat_dist  0 0 0 0 0 0 0 0 0 0 0 0 0 0 0 0 0 0 0 0 0 0 0 0 0 0 0
ST_mem_lat_dist  0 0 0 0 0 0 0 0 0 0 0 0 0 0 0 0 0 0 0 0 0 0 0 0 0 0 0
----------------------------Interconnect-DETAILS--------------------------------
Req_Network_injected_packets_num = 60821478
Req_Network_cycles = 29525935
Req_Network_injected_packets_per_cycle =       2.0599 
Req_Network_conflicts_per_cycle =       1.3936
Req_Network_conflicts_per_cycle_util =       1.7271
Req_Bank_Level_Parallism =       2.5530
Req_Network_in_buffer_full_per_cycle =       0.0001
Req_Network_in_buffer_avg_util =       1.3016
Req_Network_out_buffer_full_per_cycle =       0.0000
Req_Network_out_buffer_avg_util =       0.0865

Reply_Network_injected_packets_num = 60821478
Reply_Network_cycles = 29525935
Reply_Network_injected_packets_per_cycle =        2.0599
Reply_Network_conflicts_per_cycle =        0.3432
Reply_Network_conflicts_per_cycle_util =       0.4228
Reply_Bank_Level_Parallism =       2.5376
Reply_Network_in_buffer_full_per_cycle =       0.0000
Reply_Network_in_buffer_avg_util =       0.1219
Reply_Network_out_buffer_full_per_cycle =       0.0000
Reply_Network_out_buffer_avg_util =       0.0687
----------------------------END-of-Interconnect-DETAILS-------------------------


gpgpu_simulation_time = 3 days, 9 hrs, 17 min, 52 sec (292672 sec)
gpgpu_simulation_rate = 42653 (inst/sec)
gpgpu_simulation_rate = 100 (cycle/sec)
gpgpu_silicon_slowdown = 13650000x
GPGPU-Sim PTX: Setting up arguments for 4 bytes starting at 0x7ffe8cae420c..
GPGPU-Sim PTX: Setting up arguments for 8 bytes starting at 0x7ffe8cae4200..
GPGPU-Sim PTX: Setting up arguments for 8 bytes starting at 0x7ffe8cae41f8..
GPGPU-Sim PTX: Setting up arguments for 8 bytes starting at 0x7ffe8cae41f0..
GPGPU-Sim PTX: Setting up arguments for 8 bytes starting at 0x7ffe8cae41e8..

GPGPU-Sim PTX: cudaLaunch for 0x0x555c2014fd90 (mode=performance simulation) on stream 0
GPGPU-Sim PTX: PDOM analysis already done for _Z4hookiPKmPKiPiPb 
GPGPU-Sim PTX: pushing kernel '_Z4hookiPKmPKiPiPb' to stream 0, gridDim= (120,1,1) blockDim = (256,1,1) 
GPGPU-Sim uArch: Shader 1 bind to kernel 9 '_Z4hookiPKmPKiPiPb'
GPGPU-Sim uArch: CTA/core = 4, limited by: threads
GPGPU-Sim: Reconfigure L1 cache to 64KB
GPGPU-Sim uArch: Shader 2 bind to kernel 9 '_Z4hookiPKmPKiPiPb'
GPGPU-Sim uArch: Shader 3 bind to kernel 9 '_Z4hookiPKmPKiPiPb'
GPGPU-Sim uArch: Shader 4 bind to kernel 9 '_Z4hookiPKmPKiPiPb'
GPGPU-Sim uArch: Shader 5 bind to kernel 9 '_Z4hookiPKmPKiPiPb'
GPGPU-Sim uArch: Shader 6 bind to kernel 9 '_Z4hookiPKmPKiPiPb'
GPGPU-Sim uArch: Shader 7 bind to kernel 9 '_Z4hookiPKmPKiPiPb'
GPGPU-Sim uArch: Shader 8 bind to kernel 9 '_Z4hookiPKmPKiPiPb'
GPGPU-Sim uArch: Shader 9 bind to kernel 9 '_Z4hookiPKmPKiPiPb'
GPGPU-Sim uArch: Shader 10 bind to kernel 9 '_Z4hookiPKmPKiPiPb'
GPGPU-Sim uArch: Shader 11 bind to kernel 9 '_Z4hookiPKmPKiPiPb'
GPGPU-Sim uArch: Shader 12 bind to kernel 9 '_Z4hookiPKmPKiPiPb'
GPGPU-Sim uArch: Shader 13 bind to kernel 9 '_Z4hookiPKmPKiPiPb'
GPGPU-Sim uArch: Shader 14 bind to kernel 9 '_Z4hookiPKmPKiPiPb'
GPGPU-Sim uArch: Shader 15 bind to kernel 9 '_Z4hookiPKmPKiPiPb'
GPGPU-Sim uArch: Shader 16 bind to kernel 9 '_Z4hookiPKmPKiPiPb'
GPGPU-Sim uArch: Shader 17 bind to kernel 9 '_Z4hookiPKmPKiPiPb'
GPGPU-Sim uArch: Shader 18 bind to kernel 9 '_Z4hookiPKmPKiPiPb'
GPGPU-Sim uArch: Shader 19 bind to kernel 9 '_Z4hookiPKmPKiPiPb'
GPGPU-Sim uArch: Shader 20 bind to kernel 9 '_Z4hookiPKmPKiPiPb'
GPGPU-Sim uArch: Shader 21 bind to kernel 9 '_Z4hookiPKmPKiPiPb'
GPGPU-Sim uArch: Shader 22 bind to kernel 9 '_Z4hookiPKmPKiPiPb'
GPGPU-Sim uArch: Shader 23 bind to kernel 9 '_Z4hookiPKmPKiPiPb'
GPGPU-Sim uArch: Shader 24 bind to kernel 9 '_Z4hookiPKmPKiPiPb'
GPGPU-Sim uArch: Shader 25 bind to kernel 9 '_Z4hookiPKmPKiPiPb'
GPGPU-Sim uArch: Shader 26 bind to kernel 9 '_Z4hookiPKmPKiPiPb'
GPGPU-Sim uArch: Shader 27 bind to kernel 9 '_Z4hookiPKmPKiPiPb'
GPGPU-Sim uArch: Shader 28 bind to kernel 9 '_Z4hookiPKmPKiPiPb'
GPGPU-Sim uArch: Shader 29 bind to kernel 9 '_Z4hookiPKmPKiPiPb'
GPGPU-Sim uArch: Shader 0 bind to kernel 9 '_Z4hookiPKmPKiPiPb'
