

        *** GPGPU-Sim Simulator Version 4.2.0  [build gpgpu-sim_git-commit-5e9d31b8132651796656877ecb58fde27177ba7a_modified_315.0] ***


GPGPU-Sim PTX: simulation mode 0 (can change with PTX_SIM_MODE_FUNC environment variable:
               1=functional simulation only, 0=detailed performance simulator)
GPGPU-Sim PTX: overriding embedded ptx with ptx file (PTX_SIM_USE_PTX_FILE is set)
GPGPU-Sim: Configuration options:

-save_embedded_ptx                      0 # saves ptx files embedded in binary as <n>.ptx
-keep                                   0 # keep intermediate files created by GPGPU-Sim when interfacing with external programs
-gpgpu_ptx_save_converted_ptxplus                    0 # Saved converted ptxplus to a file
-gpgpu_occupancy_sm_number                   75 # The SM number to pass to ptxas when getting register usage for computing GPU occupancy. This parameter is required in the config.
-ptx_opcode_latency_int           4,4,4,4,21 # Opcode latencies for integers <ADD,MAX,MUL,MAD,DIV,SHFL>Default 1,1,19,25,145,32
-ptx_opcode_latency_fp           4,4,4,4,39 # Opcode latencies for single precision floating points <ADD,MAX,MUL,MAD,DIV>Default 1,1,1,1,30
-ptx_opcode_latency_dp      64,64,64,64,330 # Opcode latencies for double precision floating points <ADD,MAX,MUL,MAD,DIV>Default 8,8,8,8,335
-ptx_opcode_latency_sfu                   21 # Opcode latencies for SFU instructionsDefault 8
-ptx_opcode_latency_tesnor                   64 # Opcode latencies for Tensor instructionsDefault 64
-ptx_opcode_initiation_int            2,2,2,2,2 # Opcode initiation intervals for integers <ADD,MAX,MUL,MAD,DIV,SHFL>Default 1,1,4,4,32,4
-ptx_opcode_initiation_fp            2,2,2,2,4 # Opcode initiation intervals for single precision floating points <ADD,MAX,MUL,MAD,DIV>Default 1,1,1,1,5
-ptx_opcode_initiation_dp      64,64,64,64,130 # Opcode initiation intervals for double precision floating points <ADD,MAX,MUL,MAD,DIV>Default 8,8,8,8,130
-ptx_opcode_initiation_sfu                    8 # Opcode initiation intervals for sfu instructionsDefault 8
-ptx_opcode_initiation_tensor                   64 # Opcode initiation intervals for tensor instructionsDefault 64
-cdp_latency         7200,8000,100,12000,1600 # CDP API latency <cudaStreamCreateWithFlags, cudaGetParameterBufferV2_init_perWarp, cudaGetParameterBufferV2_perKernel, cudaLaunchDeviceV2_init_perWarp, cudaLaunchDevicV2_perKernel>Default 7200,8000,100,12000,1600
-network_mode                           2 # Interconnection network mode
-inter_config_file                   mesh # Interconnection network config file
-icnt_in_buffer_limit                  512 # in_buffer_limit
-icnt_out_buffer_limit                  512 # out_buffer_limit
-icnt_subnets                           2 # subnets
-icnt_arbiter_algo                      1 # arbiter_algo
-icnt_verbose                           0 # inct_verbose
-icnt_grant_cycles                      1 # grant_cycles
-gpgpu_ptx_use_cuobjdump                    1 # Use cuobjdump to extract ptx and sass from binaries
-gpgpu_experimental_lib_support                    0 # Try to extract code from cuda libraries [Broken because of unknown cudaGetExportTable]
-checkpoint_option                      0 #  checkpointing flag (0 = no checkpoint)
-checkpoint_kernel                      1 #  checkpointing during execution of which kernel (1- 1st kernel)
-checkpoint_CTA                         0 #  checkpointing after # of CTA (< less than total CTA)
-resume_option                          0 #  resume flag (0 = no resume)
-resume_kernel                          0 #  Resume from which kernel (1= 1st kernel)
-resume_CTA                             0 #  resume from which CTA 
-checkpoint_CTA_t                       0 #  resume from which CTA 
-checkpoint_insn_Y                      0 #  resume from which CTA 
-gpgpu_ptx_convert_to_ptxplus                    0 # Convert SASS (native ISA) to ptxplus and run ptxplus
-gpgpu_ptx_force_max_capability                   75 # Force maximum compute capability
-gpgpu_ptx_inst_debug_to_file                    0 # Dump executed instructions' debug information to file
-gpgpu_ptx_inst_debug_file       inst_debug.txt # Executed instructions' debug output file
-gpgpu_ptx_inst_debug_thread_uid                    1 # Thread UID for executed instructions' debug output
-gpgpu_simd_model                       1 # 1 = post-dominator
-gpgpu_shader_core_pipeline              1024:32 # shader core pipeline config, i.e., {<nthread>:<warpsize>}
-gpgpu_tex_cache:l1  N:4:128:256,L:R:m:N:L,T:512:8,128:2 # per-shader L1 texture cache  (READ-ONLY) config  {<nsets>:<bsize>:<assoc>,<rep>:<wr>:<alloc>:<wr_alloc>,<mshr>:<N>:<merge>,<mq>:<rf>}
-gpgpu_const_cache:l1 N:128:64:8,L:R:f:N:L,S:2:64,4 # per-shader L1 constant memory cache  (READ-ONLY) config  {<nsets>:<bsize>:<assoc>,<rep>:<wr>:<alloc>:<wr_alloc>,<mshr>:<N>:<merge>,<mq>} 
-gpgpu_cache:il1     N:64:128:16,L:R:f:N:L,S:2:48,4 # shader L1 instruction cache config  {<nsets>:<bsize>:<assoc>,<rep>:<wr>:<alloc>:<wr_alloc>,<mshr>:<N>:<merge>,<mq>} 
-gpgpu_cache:dl1     S:4:128:64,L:T:m:L:L,A:256:32,16:0,32 # per-shader L1 data cache config  {<nsets>:<bsize>:<assoc>,<rep>:<wr>:<alloc>:<wr_alloc>,<mshr>:<N>:<merge>,<mq> | none}
-gpgpu_l1_cache_write_ratio                   25 # L1D write ratio
-gpgpu_l1_banks                         4 # The number of L1 cache banks
-gpgpu_l1_banks_byte_interleaving                   32 # l1 banks byte interleaving granularity
-gpgpu_l1_banks_hashing_function                    0 # l1 banks hashing function
-gpgpu_l1_latency                      32 # L1 Hit Latency
-gpgpu_smem_latency                    30 # smem Latency
-gpgpu_cache:dl1PrefL1                 none # per-shader L1 data cache config  {<nsets>:<bsize>:<assoc>,<rep>:<wr>:<alloc>:<wr_alloc>,<mshr>:<N>:<merge>,<mq> | none}
-gpgpu_cache:dl1PrefShared                 none # per-shader L1 data cache config  {<nsets>:<bsize>:<assoc>,<rep>:<wr>:<alloc>:<wr_alloc>,<mshr>:<N>:<merge>,<mq> | none}
-gpgpu_gmem_skip_L1D                    0 # global memory access skip L1D cache (implements -Xptxas -dlcm=cg, default=no skip)
-gpgpu_perfect_mem                      0 # enable perfect memory mode (no cache miss)
-n_regfile_gating_group                    4 # group of lanes that should be read/written together)
-gpgpu_clock_gated_reg_file                    0 # enable clock gated reg file for power calculations
-gpgpu_clock_gated_lanes                    0 # enable clock gated lanes for power calculations
-gpgpu_shader_registers                65536 # Number of registers per shader core. Limits number of concurrent CTAs. (default 8192)
-gpgpu_registers_per_block                65536 # Maximum number of registers per CTA. (default 8192)
-gpgpu_ignore_resources_limitation                    0 # gpgpu_ignore_resources_limitation (default 0)
-gpgpu_shader_cta                      16 # Maximum number of concurrent CTAs in shader (default 32)
-gpgpu_num_cta_barriers                   16 # Maximum number of named barriers per CTA (default 16)
-gpgpu_n_clusters                      30 # number of processing clusters
-gpgpu_n_cores_per_cluster                    1 # number of simd cores per cluster
-gpgpu_n_cluster_ejection_buffer_size                   32 # number of packets in ejection buffer
-gpgpu_n_ldst_response_buffer_size                    2 # number of response packets in ld/st unit ejection buffer
-gpgpu_shmem_per_block                49152 # Size of shared memory per thread block or CTA (default 48kB)
-gpgpu_shmem_size                   65536 # Size of shared memory per shader core (default 16kB)
-gpgpu_shmem_option                 32,64 # Option list of shared memory sizes
-gpgpu_unified_l1d_size                   96 # Size of unified data cache(L1D + shared memory) in KB
-gpgpu_adaptive_cache_config                    1 # adaptive_cache_config
-gpgpu_shmem_sizeDefault                65536 # Size of shared memory per shader core (default 16kB)
-gpgpu_shmem_size_PrefL1                16384 # Size of shared memory per shader core (default 16kB)
-gpgpu_shmem_size_PrefShared                16384 # Size of shared memory per shader core (default 16kB)
-gpgpu_shmem_num_banks                   32 # Number of banks in the shared memory in each shader core (default 16)
-gpgpu_shmem_limited_broadcast                    0 # Limit shared memory to do one broadcast per cycle (default on)
-gpgpu_shmem_warp_parts                    1 # Number of portions a warp is divided into for shared memory bank conflict check 
-gpgpu_mem_unit_ports                    1 # The number of memory transactions allowed per core cycle
-gpgpu_shmem_warp_parts                    1 # Number of portions a warp is divided into for shared memory bank conflict check 
-gpgpu_warpdistro_shader                   -1 # Specify which shader core to collect the warp size distribution from
-gpgpu_warp_issue_shader                    0 # Specify which shader core to collect the warp issue distribution from
-gpgpu_local_mem_map                    1 # Mapping from local memory space address to simulated GPU physical address space (default = enabled)
-gpgpu_num_reg_banks                    8 # Number of register banks (default = 8)
-gpgpu_reg_bank_use_warp_id                    0 # Use warp ID in mapping registers to banks (default = off)
-gpgpu_sub_core_model                    1 # Sub Core Volta/Pascal model (default = off)
-gpgpu_enable_specialized_operand_collector                    0 # enable_specialized_operand_collector
-gpgpu_operand_collector_num_units_sp                    4 # number of collector units (default = 4)
-gpgpu_operand_collector_num_units_dp                    0 # number of collector units (default = 0)
-gpgpu_operand_collector_num_units_sfu                    4 # number of collector units (default = 4)
-gpgpu_operand_collector_num_units_int                    0 # number of collector units (default = 0)
-gpgpu_operand_collector_num_units_tensor_core                    4 # number of collector units (default = 4)
-gpgpu_operand_collector_num_units_mem                    2 # number of collector units (default = 2)
-gpgpu_operand_collector_num_units_gen                    8 # number of collector units (default = 0)
-gpgpu_operand_collector_num_in_ports_sp                    1 # number of collector unit in ports (default = 1)
-gpgpu_operand_collector_num_in_ports_dp                    0 # number of collector unit in ports (default = 0)
-gpgpu_operand_collector_num_in_ports_sfu                    1 # number of collector unit in ports (default = 1)
-gpgpu_operand_collector_num_in_ports_int                    0 # number of collector unit in ports (default = 0)
-gpgpu_operand_collector_num_in_ports_tensor_core                    1 # number of collector unit in ports (default = 1)
-gpgpu_operand_collector_num_in_ports_mem                    1 # number of collector unit in ports (default = 1)
-gpgpu_operand_collector_num_in_ports_gen                    8 # number of collector unit in ports (default = 0)
-gpgpu_operand_collector_num_out_ports_sp                    1 # number of collector unit in ports (default = 1)
-gpgpu_operand_collector_num_out_ports_dp                    0 # number of collector unit in ports (default = 0)
-gpgpu_operand_collector_num_out_ports_sfu                    1 # number of collector unit in ports (default = 1)
-gpgpu_operand_collector_num_out_ports_int                    0 # number of collector unit in ports (default = 0)
-gpgpu_operand_collector_num_out_ports_tensor_core                    1 # number of collector unit in ports (default = 1)
-gpgpu_operand_collector_num_out_ports_mem                    1 # number of collector unit in ports (default = 1)
-gpgpu_operand_collector_num_out_ports_gen                    8 # number of collector unit in ports (default = 0)
-gpgpu_coalesce_arch                   75 # Coalescing arch (GT200 = 13, Fermi = 20)
-gpgpu_num_sched_per_core                    4 # Number of warp schedulers per core
-gpgpu_max_insn_issue_per_warp                    1 # Max number of instructions that can be issued per warp in one cycle by scheduler (either 1 or 2)
-gpgpu_dual_issue_diff_exec_units                    1 # should dual issue use two different execution unit resources (Default = 1)
-gpgpu_simt_core_sim_order                    1 # Select the simulation order of cores in a cluster (0=Fix, 1=Round-Robin)
-gpgpu_pipeline_widths 4,4,4,4,4,4,4,4,4,4,8,4,4 # Pipeline widths ID_OC_SP,ID_OC_DP,ID_OC_INT,ID_OC_SFU,ID_OC_MEM,OC_EX_SP,OC_EX_DP,OC_EX_INT,OC_EX_SFU,OC_EX_MEM,EX_WB,ID_OC_TENSOR_CORE,OC_EX_TENSOR_CORE
-gpgpu_tensor_core_avail                    1 # Tensor Core Available (default=0)
-gpgpu_num_sp_units                     4 # Number of SP units (default=1)
-gpgpu_num_dp_units                     4 # Number of DP units (default=0)
-gpgpu_num_int_units                    4 # Number of INT units (default=0)
-gpgpu_num_sfu_units                    4 # Number of SF units (default=1)
-gpgpu_num_tensor_core_units                    4 # Number of tensor_core units (default=1)
-gpgpu_num_mem_units                    1 # Number if ldst units (default=1) WARNING: not hooked up to anything
-gpgpu_scheduler                      lrr # Scheduler configuration: < lrr | gto | two_level_active > If two_level_active:<num_active_warps>:<inner_prioritization>:<outer_prioritization>For complete list of prioritization values see shader.h enum scheduler_prioritization_typeDefault: gto
-gpgpu_concurrent_kernel_sm                    0 # Support concurrent kernels on a SM (default = disabled)
-gpgpu_perfect_inst_const_cache                    1 # perfect inst and const cache mode, so all inst and const hits in the cache(default = disabled)
-gpgpu_inst_fetch_throughput                    4 # the number of fetched intruction per warp each cycle
-gpgpu_reg_file_port_throughput                    2 # the number ports of the register file
-specialized_unit_1         0,4,4,4,4,BRA # specialized unit config {<enabled>,<num_units>:<latency>:<initiation>,<ID_OC_SPEC>:<OC_EX_SPEC>,<NAME>}
-specialized_unit_2         0,4,4,4,4,BRA # specialized unit config {<enabled>,<num_units>:<latency>:<initiation>,<ID_OC_SPEC>:<OC_EX_SPEC>,<NAME>}
-specialized_unit_3         0,4,4,4,4,BRA # specialized unit config {<enabled>,<num_units>:<latency>:<initiation>,<ID_OC_SPEC>:<OC_EX_SPEC>,<NAME>}
-specialized_unit_4         0,4,4,4,4,BRA # specialized unit config {<enabled>,<num_units>:<latency>:<initiation>,<ID_OC_SPEC>:<OC_EX_SPEC>,<NAME>}
-specialized_unit_5         0,4,4,4,4,BRA # specialized unit config {<enabled>,<num_units>:<latency>:<initiation>,<ID_OC_SPEC>:<OC_EX_SPEC>,<NAME>}
-specialized_unit_6         0,4,4,4,4,BRA # specialized unit config {<enabled>,<num_units>:<latency>:<initiation>,<ID_OC_SPEC>:<OC_EX_SPEC>,<NAME>}
-specialized_unit_7         0,4,4,4,4,BRA # specialized unit config {<enabled>,<num_units>:<latency>:<initiation>,<ID_OC_SPEC>:<OC_EX_SPEC>,<NAME>}
-specialized_unit_8         0,4,4,4,4,BRA # specialized unit config {<enabled>,<num_units>:<latency>:<initiation>,<ID_OC_SPEC>:<OC_EX_SPEC>,<NAME>}
-gpgpu_perf_sim_memcpy                    1 # Fill the L2 cache on memcpy
-gpgpu_simple_dram_model                    0 # simple_dram_model with fixed latency and BW
-gpgpu_dram_scheduler                    1 # 0 = fifo, 1 = FR-FCFS (defaul)
-gpgpu_dram_partition_queues          64:64:64:64 # i2$:$2d:d2$:$2i
-l2_ideal                               0 # Use a ideal L2 cache that always hit
-gpgpu_cache:dl2     S:64:128:16,L:B:m:L:P,A:192:4,32:0,32 # unified banked L2 data cache config  {<nsets>:<bsize>:<assoc>,<rep>:<wr>:<alloc>:<wr_alloc>,<mshr>:<N>:<merge>,<mq>}
-gpgpu_cache:dl2_texture_only                    0 # L2 cache used for texture only
-gpgpu_n_mem                           12 # number of memory modules (e.g. memory controllers) in gpu
-gpgpu_n_sub_partition_per_mchannel                    2 # number of memory subpartition in each memory module
-gpgpu_n_mem_per_ctrlr                    1 # number of memory chips per memory controller
-gpgpu_memlatency_stat                   14 # track and display latency statistics 0x2 enables MC, 0x4 enables queue logs
-gpgpu_frfcfs_dram_sched_queue_size                   64 # 0 = unlimited (default); # entries per chip
-gpgpu_dram_return_queue_size                  192 # 0 = unlimited (default); # entries per chip
-gpgpu_dram_buswidth                    2 # default = 4 bytes (8 bytes per cycle at DDR)
-gpgpu_dram_burst_length                   16 # Burst length of each DRAM request (default = 4 data bus cycle)
-dram_data_command_freq_ratio                    4 # Frequency ratio between DRAM data bus and command bus (default = 2 times, i.e. DDR)
-gpgpu_dram_timing_opt nbk=16:CCD=4:RRD=12:RCD=24:RAS=55:RP=24:RC=78:CL=24:WL=8:CDLR=10:WR=24:nbkgrp=4:CCDL=6:RTPL=4 # DRAM timing parameters = {nbk:tCCD:tRRD:tRCD:tRAS:tRP:tRC:CL:WL:tCDLR:tWR:nbkgrp:tCCDL:tRTPL}
-gpgpu_l2_rop_latency                  194 # ROP queue latency (default 85)
-dram_latency                          96 # DRAM latency (default 30)
-dram_dual_bus_interface                    0 # dual_bus_interface (default = 0) 
-dram_bnk_indexing_policy                    0 # dram_bnk_indexing_policy (0 = normal indexing, 1 = Xoring with the higher bits) (Default = 0)
-dram_bnkgrp_indexing_policy                    1 # dram_bnkgrp_indexing_policy (0 = take higher bits, 1 = take lower bits) (Default = 0)
-dram_seperate_write_queue_enable                    0 # Seperate_Write_Queue_Enable
-dram_write_queue_size             32:28:16 # Write_Queue_Size
-dram_elimnate_rw_turnaround                    0 # elimnate_rw_turnaround i.e set tWTR and tRTW = 0
-icnt_flit_size                        40 # icnt_flit_size
-icnt_flit_size                        40 # icnt_flit_size
-mem_profiler                           1 # memory access runtime profiling (0 = not enabled)
-gpgpu_mem_addr_mapping dramid@8;00000000.00000000.00000000.00000000.0000RRRR.RRRRRRRR.RBBBCCCC.BCCSSSSS # mapping memory address to dram model {dramid@<start bit>;<memory address map>}
-gpgpu_mem_addr_test                    0 # run sweep test to check address mapping for aliased address
-gpgpu_mem_address_mask                    1 # 0 = old addressing mask, 1 = new addressing mask, 2 = new add. mask + flipped bank sel and chip sel bits
-gpgpu_memory_partition_indexing                    0 # 0 = no indexing, 1 = bitwise xoring, 2 = IPoly, 3 = custom indexing
-accelwattch_xml_file accelwattch_sass_sim.xml # AccelWattch XML file
-power_simulation_enabled                    1 # Turn on power simulator (1=On, 0=Off)
-power_per_cycle_dump                    1 # Dump detailed power output each cycle
-hw_perf_file_name            hw_perf.csv # Hardware Performance Statistics file
-hw_perf_bench_name    hw_perf_bench_name # Kernel Name in Hardware Performance Statistics file
-power_simulation_mode                    0 # Switch performance counter input for power simulation (0=Sim, 1=HW, 2=HW-Sim Hybrid)
-dvfs_enabled                           1 # Turn on DVFS for power model
-aggregate_power_stats                    0 # Accumulate power across all kernels
-accelwattch_hybrid_perfsim_L1_RH                    0 # Get L1 Read Hits for Accelwattch-Hybrid from Accel-Sim
-accelwattch_hybrid_perfsim_L1_RM                    0 # Get L1 Read Misses for Accelwattch-Hybrid from Accel-Sim
-accelwattch_hybrid_perfsim_L1_WH                    0 # Get L1 Write Hits for Accelwattch-Hybrid from Accel-Sim
-accelwattch_hybrid_perfsim_L1_WM                    0 # Get L1 Write Misses for Accelwattch-Hybrid from Accel-Sim
-accelwattch_hybrid_perfsim_L2_RH                    0 # Get L2 Read Hits for Accelwattch-Hybrid from Accel-Sim
-accelwattch_hybrid_perfsim_L2_RM                    0 # Get L2 Read Misses for Accelwattch-Hybrid from Accel-Sim
-accelwattch_hybrid_perfsim_L2_WH                    0 # Get L2 Write Hits for Accelwattch-Hybrid from Accel-Sim
-accelwattch_hybrid_perfsim_L2_WM                    0 # Get L2 Write Misses for Accelwattch-Hybrid from Accel-Sim
-accelwattch_hybrid_perfsim_CC_ACC                    0 # Get Constant Cache Acesses for Accelwattch-Hybrid from Accel-Sim
-accelwattch_hybrid_perfsim_SHARED_ACC                    0 # Get Shared Memory Acesses for Accelwattch-Hybrid from Accel-Sim
-accelwattch_hybrid_perfsim_DRAM_RD                    0 # Get DRAM Reads for Accelwattch-Hybrid from Accel-Sim
-accelwattch_hybrid_perfsim_DRAM_WR                    0 # Get DRAM Writes for Accelwattch-Hybrid from Accel-Sim
-accelwattch_hybrid_perfsim_NOC                    0 # Get Interconnect Acesses for Accelwattch-Hybrid from Accel-Sim
-accelwattch_hybrid_perfsim_PIPE_DUTY                    0 # Get Pipeline Duty Cycle Acesses for Accelwattch-Hybrid from Accel-Sim
-accelwattch_hybrid_perfsim_NUM_SM_IDLE                    0 # Get Number of Idle SMs for Accelwattch-Hybrid from Accel-Sim
-accelwattch_hybrid_perfsim_CYCLES                    0 # Get Executed Cycles for Accelwattch-Hybrid from Accel-Sim
-accelwattch_hybrid_perfsim_VOLTAGE                    0 # Get Chip Voltage for Accelwattch-Hybrid from Accel-Sim
-power_trace_enabled                    0 # produce a file for the power trace (1=On, 0=Off)
-power_trace_zlevel                     0 # Compression level of the power trace output log (0=no comp, 9=highest)
-steady_power_levels_enabled                    0 # produce a file for the steady power levels (1=On, 0=Off)
-steady_state_definition                  8:4 # allowed deviation:number of samples
-gpgpu_max_cycle                        0 # terminates gpu simulation early (0 = no limit)
-gpgpu_max_insn                         0 # terminates gpu simulation early (0 = no limit)
-gpgpu_max_cta                          0 # terminates gpu simulation early (0 = no limit)
-gpgpu_max_completed_cta                    0 # terminates gpu simulation early (0 = no limit)
-gpgpu_runtime_stat                   100 # display runtime statistics such as dram utilization {<freq>:<flag>}
-liveness_message_freq                    1 # Minimum number of seconds between simulation liveness messages (0 = always print)
-gpgpu_compute_capability_major                    7 # Major compute capability version number
-gpgpu_compute_capability_minor                    5 # Minor compute capability version number
-gpgpu_flush_l1_cache                    1 # Flush L1 cache at the end of each kernel call
-gpgpu_flush_l2_cache                    0 # Flush L2 cache at the end of each kernel call
-gpgpu_deadlock_detect                    1 # Stop the simulation at deadlock (1=on (default), 0=off)
-gpgpu_ptx_instruction_classification                    0 # if enabled will classify ptx instruction types per kernel (Max 255 kernels now)
-gpgpu_ptx_sim_mode                     0 # Select between Performance (default) or Functional simulation (1)
-gpgpu_clock_domains 1365:1365:1365:3500.5 # Clock Domain Frequencies in MhZ {<Core Clock>:<ICNT Clock>:<L2 Clock>:<DRAM Clock>}
-gpgpu_max_concurrent_kernel                  128 # maximum kernels that can run concurrently on GPU, set this value according to max resident grids for your compute capability
-gpgpu_cflog_interval                    0 # Interval between each snapshot in control flow logger
-visualizer_enabled                     0 # Turn on visualizer output (1=On, 0=Off)
-visualizer_outputfile                 NULL # Specifies the output log file for visualizer
-visualizer_zlevel                      6 # Compression level of the visualizer output log (0=no comp, 9=highest)
-gpgpu_stack_size_limit                 1024 # GPU thread stack size
-gpgpu_heap_size_limit              8388608 # GPU malloc heap size 
-gpgpu_runtime_sync_depth_limit                    2 # GPU device runtime synchronize depth
-gpgpu_runtime_pending_launch_count_limit                 2048 # GPU device runtime pending launch count
-trace_enabled                          0 # Turn on traces
-trace_components                    none # comma seperated list of traces to enable. Complete list found in trace_streams.tup. Default none
-trace_sampling_core                    0 # The core which is printed using CORE_DPRINTF. Default 0
-trace_sampling_memory_partition                   -1 # The memory partition which is printed using MEMPART_DPRINTF. Default -1 (i.e. all)
-enable_ptx_file_line_stats                    1 # Turn on PTX source line statistic profiling. (1 = On)
-ptx_line_stats_filename gpgpu_inst_stats.txt # Output file for PTX source line statistics.
-gpgpu_kernel_launch_latency                 5000 # Kernel launch latency in cycles. Default: 0
-gpgpu_cdp_enabled                      0 # Turn on CDP
-gpgpu_TB_launch_latency                    0 # thread block launch latency in cycles. Default: 0
-mem_runtime_stat              4294967396 # memory access runtime profiling sampling460ed3e1196a330cdffbedeeea690a8d  /home/zimbardo2/Documents/sim_2/linear_base
Extracting PTX file and ptxas options    1: linear_base.1.sm_75.ptx -arch=sm_75
 freq
-L1D_metrics                            1 # memory access runtime profiling for L1 data cache
-IPC_per_prof_interval                    1 # IPC per profiling interval
-instruction_monitor                    1 # Instruction monitor
-noncoal_metrics                        0 # memory access runtime profiling for shared memory
-L2_metrics                             1 # memory access runtime profiling for L2 cache
-DRAM_metrics                           1 # memory access runtime profiling for DRAM
-Shmem_metrics                          0 # memory access runtime profiling for noncoalesced accesses
-store_enable                           1 # Enable stores for memory profiling
-accumulate_stats                       0 # Accumulate stats for the memory profiling
-dump_enable                            0 # Process dump enable flag - (def = 0)
-flush_l1d                              0 # Enable flushings for L1D caches - (default = 0)
-flush_l2                               0 # Enable flushings for L2 caches - (default = 0)
-flush_dram                             0 # Enable flushings for DRAM - (default = 0)
-flush_noncoalesceds                    0 # Enable flushings for non coalesced accesses - (default = 0)
-flush_shmems                           0 # Enable flushings for shared memory accesses - (default = 0)
-error_percentage          21474836480001 # Error percentage for the flushes - (default = 1)
-dump_sampling_cycle       21474836485000 # Dump sampling frequency - (default = 5000)
-flush_acc_type                         2 # Flush access types
-monitor_sampling_cycle                 5000 # Monitoring sampling cycle - (default = 5000)
DRAM Timing Options:
nbk                                    16 # number of banks
CCD                                     4 # column to column delay
RRD                                    12 # minimal delay between activation of rows in different banks
RCD                                    24 # row to column delay
RAS                                    55 # time needed to activate row
RP                                     24 # time needed to precharge (deactivate) row
RC                                     78 # row cycle time
CDLR                                   10 # switching from write to read (changes tWTR)
WR                                     24 # last data-in to row precharge
CL                                     24 # CAS latency
WL                                      8 # Write latency
nbkgrp                                  4 # number of bank groups
CCDL                                    6 # column to column delay between accesses to different bank groups
RTPL                                    4 # read to precharge delay between accesses to different bank groups
Total number of memory sub partition = 24
addr_dec_mask[CHIP]  = 0000000000000000 	high:64 low:0
addr_dec_mask[BK]    = 0000000000007080 	high:15 low:7
addr_dec_mask[ROW]   = 000000000fff8000 	high:28 low:15
addr_dec_mask[COL]   = 0000000000000f7f 	high:12 low:0
addr_dec_mask[BURST] = 000000000000001f 	high:5 low:0
sub_partition_id_mask = 0000000000000080
GPGPU-Sim uArch: clock freqs: 1365000000.000000:1365000000.000000:1365000000.000000:3500500000.000000
GPGPU-Sim uArch: clock periods: 0.00000000073260073260:0.00000000073260073260:0.00000000073260073260:0.00000000028567347522
*** Initializing Memory Statistics ***
GPGPU-Sim uArch: performance model initialization complete.
self exe links to: /home/zimbardo2/Documents/sim_2/linear_base
self exe links to: /home/zimbardo2/Documents/sim_2/linear_base
11.0
GPGPU-Sim PTX: __cudaRegisterFatBinary, fat_cubin_handle = 1, filename=default
self exe links to: /home/zimbardo2/Documents/sim_2/linear_base
Running md5sum using "md5sum /home/zimbardo2/Documents/sim_2/linear_base "
self exe links to: /home/zimbardo2/Documents/sim_2/linear_base
Extracting specific PTX file named linear_base.1.sm_75.ptx 
GPGPU-Sim PTX: __cudaRegisterFunction _ZN3cub11EmptyKernelIvEEvv : hostFun 0x0x5611f239dd26, fat_cubin_handle = 1
GPGPU-Sim PTX: Parsing linear_base.1.sm_75.ptx
GPGPU-Sim PTX: allocating stack frame region for .param "__assertfail_param_0" from 0x0 to 0x8
GPGPU-Sim PTX: allocating stack frame region for .param "__assertfail_param_1" from 0x8 to 0x10
GPGPU-Sim PTX: allocating stack frame region for .param "__assertfail_param_2" from 0x10 to 0x14
GPGPU-Sim PTX: allocating stack frame region for .param "__assertfail_param_3" from 0x14 to 0x1c
GPGPU-Sim PTX: allocating stack frame region for .param "__assertfail_param_4" from 0x1c to 0x24
GPGPU-Sim PTX: allocating global region for "__unnamed_1" from 0x100 to 0x15d (global memory space)
GPGPU-Sim PTX: allocating global region for "_ZN45_INTERNAL_587d8d7e_14_linear_base_cu_297024296thrust6system6detail10sequential3seqE" from 0x15d to 0x15e (global memory space)
GPGPU-Sim PTX: allocating global region for "_ZN45_INTERNAL_587d8d7e_14_linear_base_cu_297024296thrust6system3cpp3parE" from 0x15e to 0x15f (global memory space)
GPGPU-Sim PTX: allocating global region for "_ZN45_INTERNAL_587d8d7e_14_linear_base_cu_297024296thrust8cuda_cub3parE" from 0x15f to 0x160 (global memory space)
GPGPU-Sim PTX: allocating global region for "_ZN45_INTERNAL_587d8d7e_14_linear_base_cu_297024296thrust12placeholders2_1E" from 0x160 to 0x161 (global memory space)
GPGPU-Sim PTX: allocating global region for "_ZN45_INTERNAL_587d8d7e_14_linear_base_cu_297024296thrust12placeholders2_2E" from 0x161 to 0x162 (global memory space)
GPGPU-Sim PTX: allocating global region for "_ZN45_INTERNAL_587d8d7e_14_linear_base_cu_297024296thrust12placeholders2_3E" from 0x162 to 0x163 (global memory space)
GPGPU-Sim PTX: allocating global region for "_ZN45_INTERNAL_587d8d7e_14_linear_base_cu_297024296thrust12placeholders2_4E" from 0x163 to 0x164 (global memory space)
GPGPU-Sim PTX: allocating global region for "_ZN45_INTERNAL_587d8d7e_14_linear_base_cu_297024296thrust12placeholders2_5E" from 0x164 to 0x165 (global memory space)
GPGPU-Sim PTX: allocating global region for "_ZN45_INTERNAL_587d8d7e_14_linear_base_cu_297024296thrust12placeholders2_6E" from 0x165 to 0x166 (global memory space)
GPGPU-Sim PTX: allocating global region for "_ZN45_INTERNAL_587d8d7e_14_linear_base_cu_297024296thrust12placeholders2_7E" from 0x166 to 0x167 (global memory space)
GPGPU-Sim PTX: allocating global region for "_ZN45_INTERNAL_587d8d7e_14_linear_base_cu_297024296thrust12placeholders2_8E" from 0x167 to 0x168 (global memory space)
GPGPU-Sim PTX: allocating global region for "_ZN45_INTERNAL_587d8d7e_14_linear_base_cu_297024296thrust12placeholders2_9E" from 0x168 to 0x169 (global memory space)
GPGPU-Sim PTX: allocating global region for "_ZN45_INTERNAL_587d8d7e_14_linear_base_cu_297024296thrust12placeholders3_10E" from 0x169 to 0x16a (global memory space)
GPGPU-Sim PTX: allocating global region for "_ZN45_INTERNAL_587d8d7e_14_linear_base_cu_297024296thrust3seqE" from 0x16a to 0x16b (global memory space)
GPGPU-Sim PTX: allocating global region for "_ZN45_INTERNAL_587d8d7e_14_linear_base_cu_297024296thrust6deviceE" from 0x16b to 0x16c (global memory space)
GPGPU-Sim PTX: allocating global region for "$str" from 0x180 to 0x194 (global memory space)
GPGPU-Sim PTX: allocating global region for "$str$1" from 0x200 to 0x20f (global memory space)
GPGPU-Sim PTX: allocating shared region for "_ZN6thrust8cuda_cub4core5shmemE" from 0x0 to 0x0 (shared memory space)
GPGPU-Sim PTX: instruction assembly for function '_Z10initializeiPi'...   done.
GPGPU-Sim PTX: instruction assembly for function '_Z6insert9Worklist2iPiS0_'...   done.
GPGPU-Sim PTX: instruction assembly for function '_Z13push_frontier9Worklist2Pii'...   done.
GPGPU-Sim PTX: instruction assembly for function '_Z12bc_normalizeiPff'...   done.
GPGPU-Sim PTX: Warning -- ignoring pragma 'nounroll'
GPGPU-Sim PTX: allocating stack frame region for .param "param0" from 0x0 to 0x8
GPGPU-Sim PTX: allocating stack frame region for .param "param1" from 0x8 to 0x10
GPGPU-Sim PTX: allocating stack frame region for .param "param2" from 0x10 to 0x14
GPGPU-Sim PTX: allocating stack frame region for .param "param3" from 0x14 to 0x1c
GPGPU-Sim PTX: allocating stack frame region for .param "param4" from 0x1c to 0x24
GPGPU-Sim PTX: allocating stack frame region for .param "param0" from 0x24 to 0x2c
GPGPU-Sim PTX: allocating stack frame region for .param "param1" from 0x2c to 0x34
GPGPU-Sim PTX: allocating stack frame region for .param "param2" from 0x34 to 0x38
GPGPU-Sim PTX: allocating stack frame region for .param "param3" from 0x38 to 0x40
GPGPU-Sim PTX: allocating stack frame region for .param "param4" from 0x40 to 0x48
GPGPU-Sim PTX: allocating stack frame region for .param "param0" from 0x48 to 0x50
GPGPU-Sim PTX: allocating stack frame region for .param "param1" from 0x50 to 0x58
GPGPU-Sim PTX: allocating stack frame region for .param "param2" from 0x58 to 0x5c
GPGPU-Sim PTX: allocating stack frame region for .param "param3" from 0x5c to 0x64
GPGPU-Sim PTX: allocating stack frame region for .param "param4" from 0x64 to 0x6c
GPGPU-Sim PTX: allocating stack frame region for .param "param0" from 0x6c to 0x74
GPGPU-Sim PTX: allocating stack frame region for .param "param1" from 0x74 to 0x7c
GPGPU-Sim PTX: allocating stack frame region for .param "param2" from 0x7c to 0x80
GPGPU-Sim PTX: allocating stack frame region for .param "param3" from 0x80 to 0x88
GPGPU-Sim PTX: allocating stack frame region for .param "param4" from 0x88 to 0x90
GPGPU-Sim PTX: allocating stack frame region for .param "param0" from 0x90 to 0x98
GPGPU-Sim PTX: allocating stack frame region for .param "param1" from 0x98 to 0xa0
GPGPU-Sim PTX: allocating stack frame region for .param "param2" from 0xa0 to 0xa4
GPGPU-Sim PTX: allocating stack frame region for .param "param3" from 0xa4 to 0xac
GPGPU-Sim PTX: allocating stack frame region for .param "param4" from 0xac to 0xb4
GPGPU-Sim PTX: instruction assembly for function '_Z10bc_forwardPKmPKiPiS3_i9Worklist2S4_'...   done.
GPGPU-Sim PTX: Warning -- ignoring pragma 'nounroll'
GPGPU-Sim PTX: instruction assembly for function '_Z10bc_reverseiPKmPKiS2_S2_S2_iPfS3_'...   done.
GPGPU-Sim PTX: Warning -- ignoring pragma 'nounroll'
GPGPU-Sim PTX: Warning -- ignoring pragma 'nounroll'
GPGPU-Sim PTX: instruction assembly for function '_ZN6thrust8cuda_cub4core13_kernel_agentINS0_8__reduce11ReduceAgentINS_12zip_iteratorINS_5tupleIPfNS0_19counting_iterator_tIlEENS_9null_typeESA_SA_SA_SA_SA_SA_SA_EEEEPNS6_IflSA_SA_SA_SA_SA_SA_SA_SA_EESD_iNS0_9__extrema9arg_max_fIflNS_4lessIfEEEEEESC_SE_iSJ_EEvT0_T1_T2_T3_'...   done.
GPGPU-Sim PTX: Warning -- ignoring pragma 'nounroll'
GPGPU-Sim PTX: Warning -- ignoring pragma 'nounroll'
GPGPU-Sim PTX: instruction assembly for function '_ZN6thrust8cuda_cub4core13_kernel_agentINS0_8__reduce11ReduceAgentINS_12zip_iteratorINS_5tupleIPfNS0_19counting_iterator_tIlEENS_9null_typeESA_SA_SA_SA_SA_SA_SA_EEEEPNS6_IflSA_SA_SA_SA_SA_SA_SA_SA_EESD_iNS0_9__extrema9arg_max_fIflNS_4lessIfEEEEEESC_SE_iN3cub13GridEvenShareIiEENSL_9GridQueueIjEESJ_EEvT0_T1_T2_T3_T4_T5_'...   done.
GPGPU-Sim PTX: instruction assembly for function '_ZN6thrust8cuda_cub4core13_kernel_agentINS0_8__reduce10DrainAgentIiEEN3cub9GridQueueIjEEiEEvT0_T1_'...   done.
GPGPU-Sim PTX: Warning -- ignoring pragma 'nounroll'
GPGPU-Sim PTX: Warning -- ignoring pragma 'nounroll'
GPGPU-Sim PTX: instruction assembly for function '_ZN6thrust8cuda_cub4core13_kernel_agentINS0_8__reduce11ReduceAgentIPNS_5tupleIflNS_9null_typeES6_S6_S6_S6_S6_S6_S6_EES8_S7_iNS0_9__extrema9arg_max_fIflNS_4lessIfEEEEEES8_S8_iSD_EEvT0_T1_T2_T3_'...   done.
GPGPU-Sim PTX: Warning -- ignoring pragma 'nounroll'
GPGPU-Sim PTX: Warning -- ignoring pragma 'nounroll'
GPGPU-Sim PTX: instruction assembly for function '_ZN6thrust8cuda_cub4core13_kernel_agentINS0_8__reduce11ReduceAgentINS_12zip_iteratorINS_5tupleIPfNS0_19counting_iterator_tIlEENS_9null_typeESA_SA_SA_SA_SA_SA_SA_EEEEPNS6_IflSA_SA_SA_SA_SA_SA_SA_SA_EESD_lNS0_9__extrema9arg_max_fIflNS_4lessIfEEEEEESC_SE_lSJ_EEvT0_T1_T2_T3_'...   done.
GPGPU-Sim PTX: Warning -- ignoring pragma 'nounroll'
GPGPU-Sim PTX: Warning -- ignoring pragma 'nounroll'
GPGPU-Sim PTX: instruction assembly for function '_ZN6thrust8cuda_cub4core13_kernel_agentINS0_8__reduce11ReduceAgentINS_12zip_iteratorINS_5tupleIPfNS0_19counting_iterator_tIlEENS_9null_typeESA_SA_SA_SA_SA_SA_SA_EEEEPNS6_IflSA_SA_SA_SA_SA_SA_SA_SA_EESD_lNS0_9__extrema9arg_max_fIflNS_4lessIfEEEEEESC_SE_lN3cub13GridEvenShareIlEENSL_9GridQueueIyEESJ_EEvT0_T1_T2_T3_T4_T5_'...   done.
GPGPU-Sim PTX: instruction assembly for function '_ZN6thrust8cuda_cub4core13_kernel_agentINS0_8__reduce10DrainAgentIlEEN3cub9GridQueueIyEElEEvT0_T1_'...   done.
GPGPU-Sim PTX: Warning -- ignoring pragma 'nounroll'
GPGPU-Sim PTX: Warning -- ignoring pragma 'nounroll'
GPGPU-Sim PTX: instruction assembly for function '_ZN6thrust8cuda_cub4core13_kernel_agentINS0_8__reduce11ReduceAgentIPNS_5tupleIflNS_9null_typeES6_S6_S6_S6_S6_S6_S6_EES8_S7_lNS0_9__extrema9arg_max_fIflNS_4lessIfEEEEEES8_S8_iSD_EEvT0_T1_T2_T3_'...   done.
GPGPU-Sim PTX: instruction assembly for function '_ZN6thrust8cuda_cub4core13_kernel_agentINS0_14__parallel_for16ParallelForAgentINS0_10for_each_fINS_7pointerINS_5tupleIflNS_9null_typeES8_S8_S8_S8_S8_S8_S8_EENS0_5par_tENS_11use_defaultESB_EENS_6detail16wrapped_functionINSD_23allocator_traits_detail5gozerEvEEEElEESI_lEEvT0_T1_'...   done.
GPGPU-Sim PTX: instruction assembly for function '_ZN6thrust8cuda_cub4core13_kernel_agentINS0_14__parallel_for16ParallelForAgentINS0_20__uninitialized_copy7functorIPNS_5tupleIflNS_9null_typeES8_S8_S8_S8_S8_S8_S8_EENS_7pointerIS9_NS0_5par_tENS_11use_defaultESD_EEEElEESF_lEEvT0_T1_'...   done.
GPGPU-Sim PTX: instruction assembly for function '_ZN6thrust8cuda_cub4core13_kernel_agentINS0_14__parallel_for16ParallelForAgentINS0_11__transform17unary_transform_fIPNS_5tupleIflNS_9null_typeES8_S8_S8_S8_S8_S8_S8_EESA_NS5_14no_stencil_tagENS_8identityIS9_EENS5_21always_true_predicateEEElEESF_lEEvT0_T1_'...   done.
GPGPU-Sim PTX: instruction assembly for function '_ZN3cub11EmptyKernelIvEEvv'...   done.
GPGPU-Sim PTX: finished parsing EMBEDDED .ptx file linear_base.1.sm_75.ptx
GPGPU-Sim PTX: loading globals with explicit initializers... 
GPGPU-Sim PTX:     initializing '__unnamed_1' ...  wrote 93 bytes
GPGPU-Sim PTX:     initializing '$str' ...  wrote 20 bytes
GPGPU-Sim PTX:     initializing '$str$1' ...  wrote 15 bytes
GPGPU-Sim PTX: finished loading globals (128 bytes total).
GPGPU-Sim PTX: loading constants with explicit initializers...  done.
GPGPU-Sim PTX: Loading PTXInfo from linear_base.1.sm_75.ptx
GPGPU-Sim PTX: Kernel '_ZN3cub11EmptyKernelIvEEvv' : regs=4, lmem=0, smem=0, cmem=352
GPGPU-Sim PTX: Kernel '_ZN6thrust8cuda_cub4core13_kernel_agentINS0_14__parallel_for16ParallelForAgentINS0_11__transform17unary_transform_fIPNS_5tupleIflNS_9null_typeES8_S8_S8_S8_S8_S8_S8_EESA_NS5_14no_stencil_tagENS_8identityIS9_EENS5_21always_true_predicateEEElEESF_lEEvT0_T1_' : regs=14, lmem=0, smem=0, cmem=384
GPGPU-Sim PTX: Kernel '_ZN6thrust8cuda_cub4core13_kernel_agentINS0_14__parallel_for16ParallelForAgentINS0_20__uninitialized_copy7functorIPNS_5tupleIflNS_9null_typeES8_S8_S8_S8_S8_S8_S8_EENS_7pointerIS9_NS0_5par_tENS_11use_defaultESD_EEEElEESF_lEEvT0_T1_' : regs=16, lmem=0, smem=0, cmem=376
GPGPU-Sim PTX: Kernel '_ZN6thrust8cuda_cub4core13_kernel_agentINS0_14__parallel_for16ParallelForAgentINS0_10for_each_fINS_7pointerINS_5tupleIflNS_9null_typeES8_S8_S8_S8_S8_S8_S8_EENS0_5par_tENS_11use_defaultESB_EENS_6detail16wrapped_functionINSD_23allocator_traits_detail5gozerEvEEEElEESI_lEEvT0_T1_' : regs=4, lmem=0, smem=0, cmem=376
GPGPU-Sim PTX: Kernel '_ZN6thrust8cuda_cub4core13_kernel_agentINS0_8__reduce11ReduceAgentIPNS_5tupleIflNS_9null_typeES6_S6_S6_S6_S6_S6_S6_EES8_S7_lNS0_9__extrema9arg_max_fIflNS_4lessIfEEEEEES8_S8_iSD_EEvT0_T1_T2_T3_' : regs=34, lmem=0, smem=0, cmem=373
GPGPU-Sim PTX: Kernel '_ZN6thrust8cuda_cub4core13_kernel_agentINS0_8__reduce10DrainAgentIlEEN3cub9GridQueueIyEElEEvT0_T1_' : regs=6, lmem=0, smem=0, cmem=368
GPGPU-Sim PTX: Kernel '_ZN6thrust8cuda_cub4core13_kernel_agentINS0_8__reduce11ReduceAgentINS_12zip_iteratorINS_5tupleIPfNS0_19counting_iterator_tIlEENS_9null_typeESA_SA_SA_SA_SA_SA_SA_EEEEPNS6_IflSA_SA_SA_SA_SA_SA_SA_SA_EESD_lNS0_9__extrema9arg_max_fIflNS_4lessIfEEEEEESC_SE_lN3cub13GridEvenShareIlEENSL_9GridQueueIyEESJ_EEvT0_T1_T2_T3_T4_T5_' : regs=32, lmem=0, smem=0, cmem=465
GPGPU-Sim PTX: Kernel '_ZN6thrust8cuda_cub4core13_kernel_agentINS0_8__reduce11ReduceAgentINS_12zip_iteratorINS_5tupleIPfNS0_19counting_iterator_tIlEENS_9null_typeESA_SA_SA_SA_SA_SA_SA_EEEEPNS6_IflSA_SA_SA_SA_SA_SA_SA_SA_EESD_lNS0_9__extrema9arg_max_fIflNS_4lessIfEEEEEESC_SE_lSJ_EEvT0_T1_T2_T3_' : regs=32, lmem=0, smem=0, cmem=385
GPGPU-Sim PTX: Kernel '_ZN6thrust8cuda_cub4core13_kernel_agentINS0_8__reduce11ReduceAgentIPNS_5tupleIflNS_9null_typeES6_S6_S6_S6_S6_S6_S6_EES8_S7_iNS0_9__extrema9arg_max_fIflNS_4lessIfEEEEEES8_S8_iSD_EEvT0_T1_T2_T3_' : regs=34, lmem=0, smem=0, cmem=373
GPGPU-Sim PTX: Kernel '_ZN6thrust8cuda_cub4core13_kernel_agentINS0_8__reduce10DrainAgentIiEEN3cub9GridQueueIjEEiEEvT0_T1_' : regs=4, lmem=0, smem=0, cmem=364
GPGPU-Sim PTX: Kernel '_ZN6thrust8cuda_cub4core13_kernel_agentINS0_8__reduce11ReduceAgentINS_12zip_iteratorINS_5tupleIPfNS0_19counting_iterator_tIlEENS_9null_typeESA_SA_SA_SA_SA_SA_SA_EEEEPNS6_IflSA_SA_SA_SA_SA_SA_SA_SA_EESD_iNS0_9__extrema9arg_max_fIflNS_4lessIfEEEEEESC_SE_iN3cub13GridEvenShareIiEENSL_9GridQueueIjEESJ_EEvT0_T1_T2_T3_T4_T5_' : regs=32, lmem=0, smem=0, cmem=433
GPGPU-Sim PTX: Kernel '_ZN6thrust8cuda_cub4core13_kernel_agentINS0_8__reduce11ReduceAgentINS_12zip_iteratorINS_5tupleIPfNS0_19counting_iterator_tIlEENS_9null_typeESA_SA_SA_SA_SA_SA_SA_EEEEPNS6_IflSA_SA_SA_SA_SA_SA_SA_SA_EESD_iNS0_9__extrema9arg_max_fIflNS_4lessIfEEEEEESC_SE_iSJ_EEvT0_T1_T2_T3_' : regs=32, lmem=0, smem=0, cmem=381
GPGPU-Sim PTX: Kernel '_Z10bc_reverseiPKmPKiS2_S2_S2_iPfS3_' : regs=27, lmem=0, smem=0, cmem=424
GPGPU-Sim PTX: Kernel '_Z10bc_forwardPKmPKiPiS3_i9Worklist2S4_' : regs=32, lmem=0, smem=0, cmem=456
GPGPU-Sim PTX: Kernel '_Z12bc_normalizeiPff' : regs=16, lmem=0, smem=0, cmem=372
GPGPU-Sim PTX: Kernel '_Z13push_frontier9Worklist2Pii' : regs=8, lmem=0, smem=0, cmem=396
GPGPU-Sim PTX: Kernel '_Z6insert9Worklist2iPiS0_' : regs=15, lmem=0, smem=0, cmem=408
GPGPU-Sim PTX: Kernel '_Z10initializeiPi' : regs=8, lmem=0, smem=0, cmem=368
GPGPU-Sim PTX: __cudaRegisterFunction _ZN6thrust8cuda_cub4core13_kernel_agentINS0_14__parallel_for16ParallelForAgentINS0_11__transform17unary_transform_fIPNS_5tupleIflNS_9null_typeES8_S8_S8_S8_S8_S8_S8_EESA_NS5_14no_stencil_tagENS_8identityIS9_EENS5_21always_true_predicateEEElEESF_lEEvT0_T1_ : hostFun 0x0x5611f239e239, fat_cubin_handle = 1
GPGPU-Sim PTX: __cudaRegisterFunction _ZN6thrust8cuda_cub4core13_kernel_agentINS0_14__parallel_for16ParallelForAgentINS0_20__uninitialized_copy7functorIPNS_5tupleIflNS_9null_typeES8_S8_S8_S8_S8_S8_S8_EENS_7pointerIS9_NS0_5par_tENS_11use_defaultESD_EEEElEESF_lEEvT0_T1_ : hostFun 0x0x5611f239e1fd, fat_cubin_handle = 1
GPGPU-Sim PTX: __cudaRegisterFunction _ZN6thrust8cuda_cub4core13_kernel_agentINS0_14__parallel_for16ParallelForAgentINS0_10for_each_fINS_7pointerINS_5tupleIflNS_9null_typeES8_S8_S8_S8_S8_S8_S8_EENS0_5par_tENS_11use_defaultESB_EENS_6detail16wrapped_functionINSD_23allocator_traits_detail5gozerEvEEEElEESI_lEEvT0_T1_ : hostFun 0x0x5611f239e1d0, fat_cubin_handle = 1
GPGPU-Sim PTX: __cudaRegisterFunction _ZN6thrust8cuda_cub4core13_kernel_agentINS0_8__reduce11ReduceAgentIPNS_5tupleIflNS_9null_typeES6_S6_S6_S6_S6_S6_S6_EES8_S7_lNS0_9__extrema9arg_max_fIflNS_4lessIfEEEEEES8_S8_iSD_EEvT0_T1_T2_T3_ : hostFun 0x0x5611f239e1a2, fat_cubin_handle = 1
GPGPU-Sim PTX: __cudaRegisterFunction _ZN6thrust8cuda_cub4core13_kernel_agentINS0_8__reduce10DrainAgentIlEEN3cub9GridQueueIyEElEEvT0_T1_ : hostFun 0x0x5611f239e17c, fat_cubin_handle = 1
GPGPU-Sim PTX: __cudaRegisterFunction _ZN6thrust8cuda_cub4core13_kernel_agentINS0_8__reduce11ReduceAgentINS_12zip_iteratorINS_5tupleIPfNS0_19counting_iterator_tIlEENS_9null_typeESA_SA_SA_SA_SA_SA_SA_EEEEPNS6_IflSA_SA_SA_SA_SA_SA_SA_SA_EESD_lNS0_9__extrema9arg_max_fIflNS_4lessIfEEEEEESC_SE_lN3cub13GridEvenShareIlEENSL_9GridQueueIyEESJ_EEvT0_T1_T2_T3_T4_T5_ : hostFun 0x0x5611f239e128, fat_cubin_handle = 1
GPGPU-Sim PTX: __cudaRegisterFunction _ZN6thrust8cuda_cub4core13_kernel_agentINS0_8__reduce11ReduceAgentINS_12zip_iteratorINS_5tupleIPfNS0_19counting_iterator_tIlEENS_9null_typeESA_SA_SA_SA_SA_SA_SA_EEEEPNS6_IflSA_SA_SA_SA_SA_SA_SA_SA_EESD_lNS0_9__extrema9arg_max_fIflNS_4lessIfEEEEEESC_SE_lSJ_EEvT0_T1_T2_T3_ : hostFun 0x0x5611f239e0e6, fat_cubin_handle = 1
GPGPU-Sim PTX: __cudaRegisterFunction _ZN6thrust8cuda_cub4core13_kernel_agentINS0_8__reduce11ReduceAgentIPNS_5tupleIflNS_9null_typeES6_S6_S6_S6_S6_S6_S6_EES8_S7_iNS0_9__extrema9arg_max_fIflNS_4lessIfEEEEEES8_S8_iSD_EEvT0_T1_T2_T3_ : hostFun 0x0x5611f239e0b8, fat_cubin_handle = 1
GPGPU-Sim PTX: __cudaRegisterFunction _ZN6thrust8cuda_cub4core13_kernel_agentINS0_8__reduce10DrainAgentIiEEN3cub9GridQueueIjEEiEEvT0_T1_ : hostFun 0x0x5611f239e093, fat_cubin_handle = 1
GPGPU-Sim PTX: __cudaRegisterFunction _ZN6thrust8cuda_cub4core13_kernel_agentINS0_8__reduce11ReduceAgentINS_12zip_iteratorINS_5tupleIPfNS0_19counting_iterator_tIlEENS_9null_typeESA_SA_SA_SA_SA_SA_SA_EEEEPNS6_IflSA_SA_SA_SA_SA_SA_SA_SA_EESD_iNS0_9__extrema9arg_max_fIflNS_4lessIfEEEEEESC_SE_iN3cub13GridEvenShareIiEENSL_9GridQueueIjEESJ_EEvT0_T1_T2_T3_T4_T5_ : hostFun 0x0x5611f239e040, fat_cubin_handle = 1
GPGPU-Sim PTX: __cudaRegisterFunction _ZN6thrust8cuda_cub4core13_kernel_agentINS0_8__reduce11ReduceAgentINS_12zip_iteratorINS_5tupleIPfNS0_19counting_iterator_tIlEENS_9null_typeESA_SA_SA_SA_SA_SA_SA_EEEEPNS6_IflSA_SA_SA_SA_SA_SA_SA_SA_EESD_iNS0_9__extrema9arg_max_fIflNS_4lessIfEEEEEESC_SE_iSJ_EEvT0_T1_T2_T3_ : hostFun 0x0x5611f239dfff, fat_cubin_handle = 1
GPGPU-Sim PTX: __cudaRegisterFunction _Z10bc_reverseiPKmPKiS2_S2_S2_iPfS3_ : hostFun 0x0x5611f2399cc7, fat_cubin_handle = 1
GPGPU-Sim PTX: __cudaRegisterFunction _Z10bc_forwardPKmPKiPiS3_i9Worklist2S4_ : hostFun 0x0x5611f2399a63, fat_cubin_handle = 1
GPGPU-Sim PTX: __cudaRegisterFunction _Z12bc_normalizeiPff : hostFun 0x0x5611f2399846, fat_cubin_handle = 1
GPGPU-Sim PTX: __cudaRegisterFunction _Z13push_frontier9Worklist2Pii : hostFun 0x0x5611f23996c3, fat_cubin_handle = 1
GPGPU-Sim PTX: __cudaRegisterFunction _Z6insert9Worklist2iPiS0_ : hostFun 0x0x5611f2399531, fat_cubin_handle = 1
GPGPU-Sim PTX: __cudaRegisterFunction _Z10initializeiPi : hostFun 0x0x5611f2399397, fat_cubin_handle = 1
GPGPU-Sim PTX: __cudaRegisterVar: hostVar = 0x5611f23b926f; deviceAddress = _ZN45_INTERNAL_587d8d7e_14_linear_base_cu_297024296thrust6system6detail10sequential3seqE; deviceName = _ZN45_INTERNAL_587d8d7e_14_linear_base_cu_297024296thrust6system6detail10sequential3seqE
GPGPU-Sim PTX: __cudaRegisterVar: Registering const memory space of 1 bytes
GPGPU-Sim PTX registering global _ZN45_INTERNAL_587d8d7e_14_linear_base_cu_297024296thrust6system6detail10sequential3seqE hostVar to name mapping
GPGPU-Sim PTX: __cudaRegisterVar: hostVar = 0x5611f23b9275; deviceAddress = _ZN45_INTERNAL_587d8d7e_14_linear_base_cu_297024296thrust6system3cpp3parE; deviceName = _ZN45_INTERNAL_587d8d7e_14_linear_base_cu_297024296thrust6system3cpp3parE
GPGPU-Sim PTX: __cudaRegisterVar: Registering const memory space of 1 bytes
GPGPU-Sim PTX registering global _ZN45_INTERNAL_587d8d7e_14_linear_base_cu_297024296thrust6system3cpp3parE hostVar to name mapping
GPGPU-Sim PTX: __cudaRegisterVar: hostVar = 0x5611f23b93fc; deviceAddress = _ZN45_INTERNAL_587d8d7e_14_linear_base_cu_297024296thrust8cuda_cub3parE; deviceName = _ZN45_INTERNAL_587d8d7e_14_linear_base_cu_297024296thrust8cuda_cub3parE
GPGPU-Sim PTX: __cudaRegisterVar: Registering const memory space of 1 bytes
GPGPU-Sim PTX registering global _ZN45_INTERNAL_587d8d7e_14_linear_base_cu_297024296thrust8cuda_cub3parE hostVar to name mapping
GPGPU-Sim PTX: __cudaRegisterVar: hostVar = 0x5611f23b9276; deviceAddress = _ZN45_INTERNAL_587d8d7e_14_linear_base_cu_297024296thrust12placeholders2_1E; deviceName = _ZN45_INTERNAL_587d8d7e_14_linear_base_cu_297024296thrust12placeholders2_1E
GPGPU-Sim PTX: __cudaRegisterVar: Registering const memory space of 1 bytes
GPGPU-Sim PTX registering global _ZN45_INTERNAL_587d8d7e_14_linear_base_cu_297024296thrust12placeholders2_1E hostVar to name mapping
GPGPU-Sim PTX: __cudaRegisterVar: hostVar = 0x5611f23b9277; deviceAddress = _ZN45_INTERNAL_587d8d7e_14_linear_base_cu_297024296thrust12placeholders2_2E; deviceName = _ZN45_INTERNAL_587d8d7e_14_linear_base_cu_297024296thrust12placeholders2_2E
GPGPU-Sim PTX: __cudaRegisterVar: Registering const memory space of 1 bytes
GPGPU-Sim PTX registering global _ZN45_INTERNAL_587d8d7e_14_linear_base_cu_297024296thrust12placeholders2_2E hostVar to name mapping
GPGPU-Sim PTX: __cudaRegisterVar: hostVar = 0x5611f23b9278; deviceAddress = _ZN45_INTERNAL_587d8d7e_14_linear_base_cu_297024296thrust12placeholders2_3E; deviceName = _ZN45_INTERNAL_587d8d7e_14_linear_base_cu_297024296thrust12placeholders2_3E
GPGPU-Sim PTX: __cudaRegisterVar: Registering const memory space of 1 bytes
GPGPU-Sim PTX registering global _ZN45_INTERNAL_587d8d7e_14_linear_base_cu_297024296thrust12placeholders2_3E hostVar to name mapping
GPGPU-Sim PTX: __cudaRegisterVar: hostVar = 0x5611f23b9279; deviceAddress = _ZN45_INTERNAL_587d8d7e_14_linear_base_cu_297024296thrust12placeholders2_4E; deviceName = _ZN45_INTERNAL_587d8d7e_14_linear_base_cu_297024296thrust12placeholders2_4E
GPGPU-Sim PTX: __cudaRegisterVar: Registering const memory space of 1 bytes
GPGPU-Sim PTX registering global _ZN45_INTERNAL_587d8d7e_14_linear_base_cu_297024296thrust12placeholders2_4E hostVar to name mapping
GPGPU-Sim PTX: __cudaRegisterVar: hostVar = 0x5611f23b927a; deviceAddress = _ZN45_INTERNAL_587d8d7e_14_linear_base_cu_297024296thrust12placeholders2_5E; deviceName = _ZN45_INTERNAL_587d8d7e_14_linear_base_cu_297024296thrust12placeholders2_5E
GPGPU-Sim PTX: __cudaRegisterVar: Registering const memory space of 1 bytes
GPGPU-Sim PTX registering global _ZN45_INTERNAL_587d8d7e_14_linear_base_cu_297024296thrust12placeholders2_5E hostVar to name mapping
GPGPU-Sim PTX: __cudaRegisterVar: hostVar = 0x5611f23b927b; deviceAddress = _ZN45_INTERNAL_587d8d7e_14_linear_base_cu_297024296thrust12placeholders2_6E; deviceName = _ZN45_INTERNAL_587d8d7e_14_linear_base_cu_297024296thrust12placeholders2_6E
GPGPU-Sim PTX: __cudaRegisterVar: Registering const memory space of 1 bytes
GPGPU-Sim PTX registering global _ZN45_INTERNAL_587d8d7e_14_linear_base_cu_297024296thrust12placeholders2_6E hostVar to name mapping
GPGPU-Sim PTX: __cudaRegisterVar: hostVar = 0x5611f23b927c; deviceAddress = _ZN45_INTERNAL_587d8d7e_14_linear_base_cu_297024296thrust12placeholders2_7E; deviceName = _ZN45_INTERNAL_587d8d7e_14_linear_base_cu_297024296thrust12placeholders2_7E
GPGPU-Sim PTX: __cudaRegisterVar: Registering const memory space of 1 bytes
GPGPU-Sim PTX registering global _ZN45_INTERNAL_587d8d7e_14_linear_base_cu_297024296thrust12placeholders2_7E hostVar to name mapping
GPGPU-Sim PTX: __cudaRegisterVar: hostVar = 0x5611f23b927d; deviceAddress = _ZN45_INTERNAL_587d8d7e_14_linear_base_cu_297024296thrust12placeholders2_8E; deviceName = _ZN45_INTERNAL_587d8d7e_14_linear_base_cu_297024296thrust12placeholders2_8E
GPGPU-Sim PTX: __cudaRegisterVar: Registering const memory space of 1 bytes
GPGPU-Sim PTX registering global _ZN45_INTERNAL_587d8d7e_14_linear_base_cu_297024296thrust12placeholders2_8E hostVar to name mapping
GPGPU-Sim PTX: __cudaRegisterVar: hostVar = 0x5611f23b927e; deviceAddress = _ZN45_INTERNAL_587d8d7e_14_linear_base_cu_297024296thrust12placeholders2_9E; deviceName = _ZN45_INTERNAL_587d8d7e_14_linear_base_cu_297024296thrust12placeholders2_9E
GPGPU-Sim PTX: __cudaRegisterVar: Registering const memory space of 1 bytes
GPGPU-Sim PTX registering global _ZN45_INTERNAL_587d8d7e_14_linear_base_cu_297024296thrust12placeholders2_9E hostVar to name mapping
GPGPU-Sim PTX: __cudaRegisterVar: hostVar = 0x5611f23b927f; deviceAddress = _ZN45_INTERNAL_587d8d7e_14_linear_base_cu_297024296thrust12placeholders3_10E; deviceName = _ZN45_INTERNAL_587d8d7e_14_linear_base_cu_297024296thrust12placeholders3_10E
GPGPU-Sim PTX: __cudaRegisterVar: Registering const memory space of 1 bytes
GPGPU-Sim PTX registering global _ZN45_INTERNAL_587d8d7e_14_linear_base_cu_297024296thrust12placeholders3_10E hostVar to name mapping
GPGPU-Sim PTX: __cudaRegisterVar: hostVar = 0x5611f23b9274; deviceAddress = _ZN45_INTERNAL_587d8d7e_14_linear_base_cu_297024296thrust3seqE; deviceName = _ZN45_INTERNAL_587d8d7e_14_linear_base_cu_297024296thrust3seqE
GPGPU-Sim PTX: __cudaRegisterVar: Registering const memory space of 1 bytes
GPGPU-Sim PTX registering global _ZN45_INTERNAL_587d8d7e_14_linear_base_cu_297024296thrust3seqE hostVar to name mapping
GPGPU-Sim PTX: __cudaRegisterVar: hostVar = 0x5611f23b9482; deviceAddress = _ZN45_INTERNAL_587d8d7e_14_linear_base_cu_297024296thrust6deviceE; deviceName = _ZN45_INTERNAL_587d8d7e_14_linear_base_cu_297024296thrust6deviceE
GPGPU-Sim PTX: __cudaRegisterVar: Registering const memory space of 1 bytes
GPGPU-Sim PTX registering global _ZN45_INTERNAL_587d8d7e_14_linear_base_cu_297024296thrust6deviceE hostVar to name mapping
Betweenness Centrality by Xuhao Chen
Reading (.mtx) input file ../benchmarks/gardenia/datasets/soc-Slashdot0811.mtx
Removing redundent edges... 0 redundent edges are removed
|V| 77360 |E| 828161
GPGPU-Sim PTX: Setting up arguments for 4 bytes starting at 0x7ffc0602095c..
GPGPU-Sim PTX: Setting up arguments for 8 bytes starting at 0x7ffc06020950..

GPGPU-Sim PTX: cudaLaunch for 0x0x5611f2399397 (mode=performance simulation) on stream 0
GPGPU-Sim PTX: finding reconvergence points for '_Z10initializeiPi'...
GPGPU-Sim PTX: Finding dominators for '_Z10initializeiPi'...
GPGPU-Sim PTX: Finding immediate dominators for '_Z10initializeiPi'...
GPGPU-Sim PTX: Finding postdominators for '_Z10initializeiPi'...
GPGPU-Sim PTX: Finding immediate postdominators for '_Z10initializeiPi'...
GPGPU-Sim PTX: pre-decoding instructions for '_Z10initializeiPi'...
GPGPU-Sim PTX: reconvergence points for _Z10initializeiPi...
GPGPU-Sim PTX:  1 (potential) branch divergence @  PC=0x038 (linear_base.1.sm_75.ptx:60) @%p1 bra $L__BB0_2;

GPGPU-Sim PTX:    immediate post dominator      @  PC=0x068 (linear_base.1.sm_75.ptx:69) ret;

GPGPU-Sim PTX: ... end of reconvergence points for _Z10initializeiPi
GPGPU-Sim PTX: ... done pre-decoding instructions for '_Z10initializeiPi'.
GPGPU-Sim PTX: pushing kernel '_Z10initializeiPi' to stream 0, gridDim= (303,1,1) blockDim = (256,1,1) 
GPGPU-Sim uArch: Shader 0 bind to kernel 1 '_Z10initializeiPi'
GPGPU-Sim uArch: CTA/core = 4, limited by: threads
GPGPU-Sim: Reconfigure L1 cache to 64KB
GPGPU-Sim uArch: Shader 1 bind to kernel 1 '_Z10initializeiPi'
GPGPU-Sim uArch: Shader 2 bind to kernel 1 '_Z10initializeiPi'
GPGPU-Sim uArch: Shader 3 bind to kernel 1 '_Z10initializeiPi'
GPGPU-Sim uArch: Shader 4 bind to kernel 1 '_Z10initializeiPi'
GPGPU-Sim uArch: Shader 5 bind to kernel 1 '_Z10initializeiPi'
GPGPU-Sim uArch: Shader 6 bind to kernel 1 '_Z10initializeiPi'
GPGPU-Sim uArch: Shader 7 bind to kernel 1 '_Z10initializeiPi'
GPGPU-Sim uArch: Shader 8 bind to kernel 1 '_Z10initializeiPi'
GPGPU-Sim uArch: Shader 9 bind to kernel 1 '_Z10initializeiPi'
GPGPU-Sim uArch: Shader 10 bind to kernel 1 '_Z10initializeiPi'
GPGPU-Sim uArch: Shader 11 bind to kernel 1 '_Z10initializeiPi'
GPGPU-Sim uArch: Shader 12 bind to kernel 1 '_Z10initializeiPi'
GPGPU-Sim uArch: Shader 13 bind to kernel 1 '_Z10initializeiPi'
GPGPU-Sim uArch: Shader 14 bind to kernel 1 '_Z10initializeiPi'
GPGPU-Sim uArch: Shader 15 bind to kernel 1 '_Z10initializeiPi'
GPGPU-Sim uArch: Shader 16 bind to kernel 1 '_Z10initializeiPi'
GPGPU-Sim uArch: Shader 17 bind to kernel 1 '_Z10initializeiPi'
GPGPU-Sim uArch: Shader 18 bind to kernel 1 '_Z10initializeiPi'
GPGPU-Sim uArch: Shader 19 bind to kernel 1 '_Z10initializeiPi'
GPGPU-Sim uArch: Shader 20 bind to kernel 1 '_Z10initializeiPi'
GPGPU-Sim uArch: Shader 21 bind to kernel 1 '_Z10initializeiPi'
GPGPU-Sim uArch: Shader 22 bind to kernel 1 '_Z10initializeiPi'
GPGPU-Sim uArch: Shader 23 bind to kernel 1 '_Z10initializeiPi'
GPGPU-Sim uArch: Shader 24 bind to kernel 1 '_Z10initializeiPi'
GPGPU-Sim uArch: Shader 25 bind to kernel 1 '_Z10initializeiPi'
GPGPU-Sim uArch: Shader 26 bind to kernel 1 '_Z10initializeiPi'
GPGPU-Sim uArch: Shader 27 bind to kernel 1 '_Z10initializeiPi'
GPGPU-Sim uArch: Shader 28 bind to kernel 1 '_Z10initializeiPi'
GPGPU-Sim uArch: Shader 29 bind to kernel 1 '_Z10initializeiPi'
Destroy streams for kernel 1: size 0
kernel_name = _Z10initializeiPi 
kernel_launch_uid = 1 
gpu_sim_cycle = 6923
gpu_sim_insn = 1007552
gpu_ipc =     145.5369
gpu_tot_sim_cycle = 6923
gpu_tot_sim_insn = 1007552
gpu_tot_ipc =     145.5369
gpu_tot_issued_cta = 303
gpu_occupancy = 86.9485% 
gpu_tot_occupancy = 86.9485% 
max_total_param_size = 0
gpu_stall_dramfull = 0
gpu_stall_icnt2sh    = 0
partiton_level_parallism =       1.3968
partiton_level_parallism_total  =       1.3968
partiton_level_parallism_util =      10.6031
partiton_level_parallism_util_total  =      10.6031
L2_BW  =      61.0119 GB/Sec
L2_BW_total  =      61.0119 GB/Sec
gpu_total_sim_rate=47978

========= Core cache stats =========
L1I_cache:
	L1I_total_cache_accesses = 0
	L1I_total_cache_misses = 0
	L1I_total_cache_pending_hits = 0
	L1I_total_cache_reservation_fails = 0
L1D_cache:
	L1D_cache_core[0]: Access = 384, Miss = 384, Miss_rate = 1.000, Pending_hits = 0, Reservation_fails = 423
	L1D_cache_core[1]: Access = 288, Miss = 288, Miss_rate = 1.000, Pending_hits = 0, Reservation_fails = 306
	L1D_cache_core[2]: Access = 384, Miss = 384, Miss_rate = 1.000, Pending_hits = 0, Reservation_fails = 450
	L1D_cache_core[3]: Access = 384, Miss = 384, Miss_rate = 1.000, Pending_hits = 0, Reservation_fails = 397
	L1D_cache_core[4]: Access = 384, Miss = 384, Miss_rate = 1.000, Pending_hits = 0, Reservation_fails = 414
	L1D_cache_core[5]: Access = 256, Miss = 256, Miss_rate = 1.000, Pending_hits = 0, Reservation_fails = 291
	L1D_cache_core[6]: Access = 384, Miss = 384, Miss_rate = 1.000, Pending_hits = 0, Reservation_fails = 400
	L1D_cache_core[7]: Access = 384, Miss = 384, Miss_rate = 1.000, Pending_hits = 0, Reservation_fails = 392
	L1D_cache_core[8]: Access = 384, Miss = 384, Miss_rate = 1.000, Pending_hits = 0, Reservation_fails = 441
	L1D_cache_core[9]: Access = 320, Miss = 320, Miss_rate = 1.000, Pending_hits = 0, Reservation_fails = 366
	L1D_cache_core[10]: Access = 352, Miss = 352, Miss_rate = 1.000, Pending_hits = 0, Reservation_fails = 396
	L1D_cache_core[11]: Access = 384, Miss = 384, Miss_rate = 1.000, Pending_hits = 0, Reservation_fails = 415
	L1D_cache_core[12]: Access = 256, Miss = 256, Miss_rate = 1.000, Pending_hits = 0, Reservation_fails = 288
	L1D_cache_core[13]: Access = 256, Miss = 256, Miss_rate = 1.000, Pending_hits = 0, Reservation_fails = 288
	L1D_cache_core[14]: Access = 384, Miss = 384, Miss_rate = 1.000, Pending_hits = 0, Reservation_fails = 444
	L1D_cache_core[15]: Access = 384, Miss = 384, Miss_rate = 1.000, Pending_hits = 0, Reservation_fails = 403
	L1D_cache_core[16]: Access = 256, Miss = 256, Miss_rate = 1.000, Pending_hits = 0, Reservation_fails = 294
	L1D_cache_core[17]: Access = 288, Miss = 288, Miss_rate = 1.000, Pending_hits = 0, Reservation_fails = 309
	L1D_cache_core[18]: Access = 256, Miss = 256, Miss_rate = 1.000, Pending_hits = 0, Reservation_fails = 289
	L1D_cache_core[19]: Access = 352, Miss = 352, Miss_rate = 1.000, Pending_hits = 0, Reservation_fails = 363
	L1D_cache_core[20]: Access = 262, Miss = 262, Miss_rate = 1.000, Pending_hits = 0, Reservation_fails = 291
	L1D_cache_core[21]: Access = 256, Miss = 256, Miss_rate = 1.000, Pending_hits = 0, Reservation_fails = 300
	L1D_cache_core[22]: Access = 352, Miss = 352, Miss_rate = 1.000, Pending_hits = 0, Reservation_fails = 396
	L1D_cache_core[23]: Access = 384, Miss = 384, Miss_rate = 1.000, Pending_hits = 0, Reservation_fails = 430
	L1D_cache_core[24]: Access = 256, Miss = 256, Miss_rate = 1.000, Pending_hits = 0, Reservation_fails = 288
	L1D_cache_core[25]: Access = 256, Miss = 256, Miss_rate = 1.000, Pending_hits = 0, Reservation_fails = 288
	L1D_cache_core[26]: Access = 320, Miss = 320, Miss_rate = 1.000, Pending_hits = 0, Reservation_fails = 364
	L1D_cache_core[27]: Access = 256, Miss = 256, Miss_rate = 1.000, Pending_hits = 0, Reservation_fails = 294
	L1D_cache_core[28]: Access = 320, Miss = 320, Miss_rate = 1.000, Pending_hits = 0, Reservation_fails = 351
	L1D_cache_core[29]: Access = 288, Miss = 288, Miss_rate = 1.000, Pending_hits = 0, Reservation_fails = 309
	L1D_total_cache_accesses = 9670
	L1D_total_cache_misses = 9670
	L1D_total_cache_miss_rate = 1.0000
	L1D_total_cache_pending_hits = 0
	L1D_total_cache_reservation_fails = 10680
	L1D_cache_data_port_util = 0.000
	L1D_cache_fill_port_util = 0.000
L1C_cache:
	L1C_total_cache_accesses = 0
	L1C_total_cache_misses = 0
	L1C_total_cache_pending_hits = 0
	L1C_total_cache_reservation_fails = 0
L1T_cache:
	L1T_total_cache_accesses = 0
	L1T_total_cache_misses = 0
	L1T_total_cache_pending_hits = 0
	L1T_total_cache_reservation_fails = 0

Total_core_cache_stats:
	Total_core_cache_stats_breakdown[GLOBAL_ACC_R][HIT] = 0
	Total_core_cache_stats_breakdown[GLOBAL_ACC_R][HIT_RESERVED] = 0
	Total_core_cache_stats_breakdown[GLOBAL_ACC_R][MISS] = 0
	Total_core_cache_stats_breakdown[GLOBAL_ACC_R][RESERVATION_FAIL] = 0
	Total_core_cache_stats_breakdown[GLOBAL_ACC_R][SECTOR_MISS] = 0
	Total_core_cache_stats_breakdown[GLOBAL_ACC_R][MSHR_HIT] = 0
	Total_core_cache_stats_breakdown[LOCAL_ACC_R][HIT] = 0
	Total_core_cache_stats_breakdown[LOCAL_ACC_R][HIT_RESERVED] = 0
	Total_core_cache_stats_breakdown[LOCAL_ACC_R][MISS] = 0
	Total_core_cache_stats_breakdown[LOCAL_ACC_R][RESERVATION_FAIL] = 0
	Total_core_cache_stats_breakdown[LOCAL_ACC_R][SECTOR_MISS] = 0
	Total_core_cache_stats_breakdown[LOCAL_ACC_R][MSHR_HIT] = 0
	Total_core_cache_stats_breakdown[CONST_ACC_R][HIT] = 0
	Total_core_cache_stats_breakdown[CONST_ACC_R][HIT_RESERVED] = 0
	Total_core_cache_stats_breakdown[CONST_ACC_R][MISS] = 0
	Total_core_cache_stats_breakdown[CONST_ACC_R][RESERVATION_FAIL] = 0
	Total_core_cache_stats_breakdown[CONST_ACC_R][SECTOR_MISS] = 0
	Total_core_cache_stats_breakdown[CONST_ACC_R][MSHR_HIT] = 0
	Total_core_cache_stats_breakdown[TEXTURE_ACC_R][HIT] = 0
	Total_core_cache_stats_breakdown[TEXTURE_ACC_R][HIT_RESERVED] = 0
	Total_core_cache_stats_breakdown[TEXTURE_ACC_R][MISS] = 0
	Total_core_cache_stats_breakdown[TEXTURE_ACC_R][RESERVATION_FAIL] = 0
	Total_core_cache_stats_breakdown[TEXTURE_ACC_R][SECTOR_MISS] = 0
	Total_core_cache_stats_breakdown[TEXTURE_ACC_R][MSHR_HIT] = 0
	Total_core_cache_stats_breakdown[GLOBAL_ACC_W][HIT] = 0
	Total_core_cache_stats_breakdown[GLOBAL_ACC_W][HIT_RESERVED] = 0
	Total_core_cache_stats_breakdown[GLOBAL_ACC_W][MISS] = 2418
	Total_core_cache_stats_breakdown[GLOBAL_ACC_W][RESERVATION_FAIL] = 10680
	Total_core_cache_stats_breakdown[GLOBAL_ACC_W][SECTOR_MISS] = 7252
	Total_core_cache_stats_breakdown[GLOBAL_ACC_W][MSHR_HIT] = 0
	Total_core_cache_stats_breakdown[LOCAL_ACC_W][HIT] = 0
	Total_core_cache_stats_breakdown[LOCAL_ACC_W][HIT_RESERVED] = 0
	Total_core_cache_stats_breakdown[LOCAL_ACC_W][MISS] = 0
	Total_core_cache_stats_breakdown[LOCAL_ACC_W][RESERVATION_FAIL] = 0
	Total_core_cache_stats_breakdown[LOCAL_ACC_W][SECTOR_MISS] = 0
	Total_core_cache_stats_breakdown[LOCAL_ACC_W][MSHR_HIT] = 0
	Total_core_cache_stats_breakdown[L1_WRBK_ACC][HIT] = 0
	Total_core_cache_stats_breakdown[L1_WRBK_ACC][HIT_RESERVED] = 0
	Total_core_cache_stats_breakdown[L1_WRBK_ACC][MISS] = 0
	Total_core_cache_stats_breakdown[L1_WRBK_ACC][RESERVATION_FAIL] = 0
	Total_core_cache_stats_breakdown[L1_WRBK_ACC][SECTOR_MISS] = 0
	Total_core_cache_stats_breakdown[L1_WRBK_ACC][MSHR_HIT] = 0
	Total_core_cache_stats_breakdown[L2_WRBK_ACC][HIT] = 0
	Total_core_cache_stats_breakdown[L2_WRBK_ACC][HIT_RESERVED] = 0
	Total_core_cache_stats_breakdown[L2_WRBK_ACC][MISS] = 0
	Total_core_cache_stats_breakdown[L2_WRBK_ACC][RESERVATION_FAIL] = 0
	Total_core_cache_stats_breakdown[L2_WRBK_ACC][SECTOR_MISS] = 0
	Total_core_cache_stats_breakdown[L2_WRBK_ACC][MSHR_HIT] = 0
	Total_core_cache_stats_breakdown[INST_ACC_R][HIT] = 0
	Total_core_cache_stats_breakdown[INST_ACC_R][HIT_RESERVED] = 0
	Total_core_cache_stats_breakdown[INST_ACC_R][MISS] = 0
	Total_core_cache_stats_breakdown[INST_ACC_R][RESERVATION_FAIL] = 0
	Total_core_cache_stats_breakdown[INST_ACC_R][SECTOR_MISS] = 0
	Total_core_cache_stats_breakdown[INST_ACC_R][MSHR_HIT] = 0
	Total_core_cache_stats_breakdown[L1_WR_ALLOC_R][HIT] = 0
	Total_core_cache_stats_breakdown[L1_WR_ALLOC_R][HIT_RESERVED] = 0
	Total_core_cache_stats_breakdown[L1_WR_ALLOC_R][MISS] = 0
	Total_core_cache_stats_breakdown[L1_WR_ALLOC_R][RESERVATION_FAIL] = 0
	Total_core_cache_stats_breakdown[L1_WR_ALLOC_R][SECTOR_MISS] = 0
	Total_core_cache_stats_breakdown[L1_WR_ALLOC_R][MSHR_HIT] = 0
	Total_core_cache_stats_breakdown[L2_WR_ALLOC_R][HIT] = 0
	Total_core_cache_stats_breakdown[L2_WR_ALLOC_R][HIT_RESERVED] = 0
	Total_core_cache_stats_breakdown[L2_WR_ALLOC_R][MISS] = 0
	Total_core_cache_stats_breakdown[L2_WR_ALLOC_R][RESERVATION_FAIL] = 0
	Total_core_cache_stats_breakdown[L2_WR_ALLOC_R][SECTOR_MISS] = 0
	Total_core_cache_stats_breakdown[L2_WR_ALLOC_R][MSHR_HIT] = 0
	Total_core_cache_stats_breakdown[GLOBAL_ACC_W][TOTAL_ACCESS] = 9670

Total_core_cache_fail_stats:
	Total_core_cache_fail_stats_breakdown[GLOBAL_ACC_W][MISS_QUEUE_FULL] = 10680
ctas_completed 303, Shader 0 warp_id issue ditsribution:
warp_id:
0, 1, 2, 3, 4, 5, 6, 7, 8, 9, 10, 11, 12, 13, 14, 15, 16, 17, 18, 19, 20, 21, 22, 23, 24, 25, 26, 27, 28, 29, 30, 31, 
distro:
42, 42, 42, 42, 42, 42, 42, 42, 42, 42, 42, 42, 42, 42, 42, 42, 42, 42, 42, 42, 42, 42, 42, 42, 42, 42, 42, 42, 42, 42, 42, 42, 
gpgpu_n_tot_thrd_icount = 1084992
gpgpu_n_tot_w_icount = 33906
gpgpu_n_stall_shd_mem = 0
gpgpu_n_mem_read_local = 0
gpgpu_n_mem_write_local = 0
gpgpu_n_mem_read_global = 0
gpgpu_n_mem_write_global = 9670
gpgpu_n_mem_texture = 0
gpgpu_n_mem_const = 0
gpgpu_n_load_insn  = 0
gpgpu_n_store_insn = 77360
gpgpu_n_shmem_insn = 0
gpgpu_n_sstarr_insn = 0
gpgpu_n_tex_insn = 0
gpgpu_n_const_mem_insn = 0
gpgpu_n_param_mem_insn = 155136
gpgpu_n_shmem_bkconflict = 0
gpgpu_n_cache_bkconflict = 0
gpgpu_n_intrawarp_mshr_merge = 0
gpgpu_n_cmem_portconflict = 0
gpgpu_stall_shd_mem[c_mem][resource_stall] = 0
gpgpu_stall_shd_mem[s_mem][bk_conf] = 0
gpgpu_stall_shd_mem[gl_mem][resource_stall] = 0
gpgpu_stall_shd_mem[gl_mem][coal_stall] = 0
gpgpu_stall_shd_mem[gl_mem][data_port_stall] = 0
gpu_reg_bank_conflict_stalls = 0
Warp Occupancy Distribution:
Stall:20736	W0_Idle:149260	W0_Scoreboard:2314	W1:0	W2:0	W3:0	W4:0	W5:0	W6:0	W7:0	W8:0	W9:0	W10:0	W11:0	W12:0	W13:0	W14:0	W15:0	W16:5	W17:0	W18:0	W19:0	W20:0	W21:0	W22:0	W23:0	W24:0	W25:0	W26:0	W27:0	W28:0	W29:0	W30:0	W31:0	W32:33901
single_issue_nums: WS0:8479	WS1:8479	WS2:8474	WS3:8474	
dual_issue_nums: WS0:0	WS1:0	WS2:0	WS3:0	
traffic_breakdown_coretomem[GLOBAL_ACC_W] = 386800 {40:9670,}
traffic_breakdown_memtocore[GLOBAL_ACC_W] = 77360 {8:9670,}
maxmflatency = 607 
max_icnt2mem_latency = 403 
maxmrqlatency = 0 
max_icnt2sh_latency = 74 
averagemflatency = 384 
avg_icnt2mem_latency = 182 
avg_icnt2sh_latency = 6 
mrq_lat_table:0 	0 	0 	0 	0 	0 	0 	0 	0 	0 	0 	0 	0 	0 	0 	0 	0 	0 	0 	0 	0 	0 	0 	0 	0 	0 	0 	0 	0 	0 	0 	0 	
dq_lat_table:0 	0 	0 	0 	0 	0 	0 	0 	0 	0 	0 	0 	0 	0 	0 	0 	0 	0 	0 	0 	0 	0 	0 	0 	0 	0 	0 	0 	0 	0 	0 	0 	
mf_lat_table:0 	0 	0 	0 	0 	0 	0 	1050 	7165 	1455 	0 	0 	0 	0 	0 	0 	0 	0 	0 	0 	0 	0 	0 	0 	0 	0 	0 	0 	0 	0 	0 	0 	
icnt2mem_lat_table:0 	0 	0 	0 	0 	1506 	2473 	3072 	2619 	0 	0 	0 	0 	0 	0 	0 	0 	0 	0 	0 	0 	0 	0 	0 	
icnt2sh_lat_table:0 	5074 	2757 	925 	703 	197 	14 	0 	0 	0 	0 	0 	0 	0 	0 	0 	0 	0 	0 	0 	0 	0 	0 	0 	
mf_lat_pw_table:0 	0 	0 	0 	0 	0 	0 	3 	8 	1 	0 	0 	0 	0 	0 	0 	0 	0 	0 	0 	0 	0 	0 	0 	0 	0 	0 	0 	0 	0 	0 	0 	
maximum concurrent accesses to same row:
dram[0]:         0         0         0         0         0         0         0         0         0         0         0         0         0         0         0         0 
dram[1]:         0         0         0         0         0         0         0         0         0         0         0         0         0         0         0         0 
dram[2]:         0         0         0         0         0         0         0         0         0         0         0         0         0         0         0         0 
dram[3]:         0         0         0         0         0         0         0         0         0         0         0         0         0         0         0         0 
dram[4]:         0         0         0         0         0         0         0         0         0         0         0         0         0         0         0         0 
dram[5]:         0         0         0         0         0         0         0         0         0         0         0         0         0         0         0         0 
dram[6]:         0         0         0         0         0         0         0         0         0         0         0         0         0         0         0         0 
dram[7]:         0         0         0         0         0         0         0         0         0         0         0         0         0         0         0         0 
dram[8]:         0         0         0         0         0         0         0         0         0         0         0         0         0         0         0         0 
dram[9]:         0         0         0         0         0         0         0         0         0         0         0         0         0         0         0         0 
dram[10]:         0         0         0         0         0         0         0         0         0         0         0         0         0         0         0         0 
dram[11]:         0         0         0         0         0         0         0         0         0         0         0         0         0         0         0         0 
maximum service time to same row:
dram[0]:         0         0         0         0         0         0         0         0         0         0         0         0         0         0         0         0 
dram[1]:         0         0         0         0         0         0         0         0         0         0         0         0         0         0         0         0 
dram[2]:         0         0         0         0         0         0         0         0         0         0         0         0         0         0         0         0 
dram[3]:         0         0         0         0         0         0         0         0         0         0         0         0         0         0         0         0 
dram[4]:         0         0         0         0         0         0         0         0         0         0         0         0         0         0         0         0 
dram[5]:         0         0         0         0         0         0         0         0         0         0         0         0         0         0         0         0 
dram[6]:         0         0         0         0         0         0         0         0         0         0         0         0         0         0         0         0 
dram[7]:         0         0         0         0         0         0         0         0         0         0         0         0         0         0         0         0 
dram[8]:         0         0         0         0         0         0         0         0         0         0         0         0         0         0         0         0 
dram[9]:         0         0         0         0         0         0         0         0         0         0         0         0         0         0         0         0 
dram[10]:         0         0         0         0         0         0         0         0         0         0         0         0         0         0         0         0 
dram[11]:         0         0         0         0         0         0         0         0         0         0         0         0         0         0         0         0 
average row accesses per activate:
dram[0]:      -nan      -nan      -nan      -nan      -nan      -nan      -nan      -nan      -nan      -nan      -nan      -nan      -nan      -nan      -nan      -nan 
dram[1]:      -nan      -nan      -nan      -nan      -nan      -nan      -nan      -nan      -nan      -nan      -nan      -nan      -nan      -nan      -nan      -nan 
dram[2]:      -nan      -nan      -nan      -nan      -nan      -nan      -nan      -nan      -nan      -nan      -nan      -nan      -nan      -nan      -nan      -nan 
dram[3]:      -nan      -nan      -nan      -nan      -nan      -nan      -nan      -nan      -nan      -nan      -nan      -nan      -nan      -nan      -nan      -nan 
dram[4]:      -nan      -nan      -nan      -nan      -nan      -nan      -nan      -nan      -nan      -nan      -nan      -nan      -nan      -nan      -nan      -nan 
dram[5]:      -nan      -nan      -nan      -nan      -nan      -nan      -nan      -nan      -nan      -nan      -nan      -nan      -nan      -nan      -nan      -nan 
dram[6]:      -nan      -nan      -nan      -nan      -nan      -nan      -nan      -nan      -nan      -nan      -nan      -nan      -nan      -nan      -nan      -nan 
dram[7]:      -nan      -nan      -nan      -nan      -nan      -nan      -nan      -nan      -nan      -nan      -nan      -nan      -nan      -nan      -nan      -nan 
dram[8]:      -nan      -nan      -nan      -nan      -nan      -nan      -nan      -nan      -nan      -nan      -nan      -nan      -nan      -nan      -nan      -nan 
dram[9]:      -nan      -nan      -nan      -nan      -nan      -nan      -nan      -nan      -nan      -nan      -nan      -nan      -nan      -nan      -nan      -nan 
dram[10]:      -nan      -nan      -nan      -nan      -nan      -nan      -nan      -nan      -nan      -nan      -nan      -nan      -nan      -nan      -nan      -nan 
dram[11]:      -nan      -nan      -nan      -nan      -nan      -nan      -nan      -nan      -nan      -nan      -nan      -nan      -nan      -nan      -nan      -nan 
average row locality = 0/0 = -nan
number of total memory accesses made:
dram[0]:         0         0         0         0         0         0         0         0         0         0         0         0         0         0         0         0 
dram[1]:         0         0         0         0         0         0         0         0         0         0         0         0         0         0         0         0 
dram[2]:         0         0         0         0         0         0         0         0         0         0         0         0         0         0         0         0 
dram[3]:         0         0         0         0         0         0         0         0         0         0         0         0         0         0         0         0 
dram[4]:         0         0         0         0         0         0         0         0         0         0         0         0         0         0         0         0 
dram[5]:         0         0         0         0         0         0         0         0         0         0         0         0         0         0         0         0 
dram[6]:         0         0         0         0         0         0         0         0         0         0         0         0         0         0         0         0 
dram[7]:         0         0         0         0         0         0         0         0         0         0         0         0         0         0         0         0 
dram[8]:         0         0         0         0         0         0         0         0         0         0         0         0         0         0         0         0 
dram[9]:         0         0         0         0         0         0         0         0         0         0         0         0         0         0         0         0 
dram[10]:         0         0         0         0         0         0         0         0         0         0         0         0         0         0         0         0 
dram[11]:         0         0         0         0         0         0         0         0         0         0         0         0         0         0         0         0 
total accesses: 0
min_bank_accesses = 0!
min_chip_accesses = 0!
number of total read accesses:
dram[0]:         0         0         0         0         0         0         0         0         0         0         0         0         0         0         0         0 
dram[1]:         0         0         0         0         0         0         0         0         0         0         0         0         0         0         0         0 
dram[2]:         0         0         0         0         0         0         0         0         0         0         0         0         0         0         0         0 
dram[3]:         0         0         0         0         0         0         0         0         0         0         0         0         0         0         0         0 
dram[4]:         0         0         0         0         0         0         0         0         0         0         0         0         0         0         0         0 
dram[5]:         0         0         0         0         0         0         0         0         0         0         0         0         0         0         0         0 
dram[6]:         0         0         0         0         0         0         0         0         0         0         0         0         0         0         0         0 
dram[7]:         0         0         0         0         0         0         0         0         0         0         0         0         0         0         0         0 
dram[8]:         0         0         0         0         0         0         0         0         0         0         0         0         0         0         0         0 
dram[9]:         0         0         0         0         0         0         0         0         0         0         0         0         0         0         0         0 
dram[10]:         0         0         0         0         0         0         0         0         0         0         0         0         0         0         0         0 
dram[11]:         0         0         0         0         0         0         0         0         0         0         0         0         0         0         0         0 
total dram reads = 0
min_bank_accesses = 0!
min_chip_accesses = 0!
number of total write accesses:
dram[0]:         0         0         0         0         0         0         0         0         0         0         0         0         0         0         0         0 
[...]
n_activity=739327 dram_eff=0.1118
bk0: 1229a 20140721i bk1: 1250a 20137590i bk2: 1257a 20144330i bk3: 1225a 20142410i bk4: 1087a 20152167i bk5: 1047a 20152783i bk6: 1010a 20152996i bk7: 990a 20154488i bk8: 1076a 20152905i bk9: 1063a 20152979i bk10: 1182a 20154310i bk11: 1191a 20151731i bk12: 1027a 20154160i bk13: 975a 20157387i bk14: 1061a 20151187i bk15: 1090a 20149799i 

------------------------------------------------------------------------

Row_Buffer_Locality = 0.437473
Row_Buffer_Locality_read = 0.441779
Row_Buffer_Locality_write = 0.332418
Bank_Level_Parallism = 1.795808
Bank_Level_Parallism_Col = 1.709629
Bank_Level_Parallism_Ready = 1.521183
write_to_read_ratio_blp_rw_average = 0.100163
GrpLevelPara = 1.322764 

BW Util details:
bwutil = 0.004093 
total_CMD = 20196503 
util_bw = 82660 
Wasted_Col = 203072 
Wasted_Row = 159733 
Idle = 19751038 

BW Util Bottlenecks: 
RCDc_limit = 207952 
RCDWRc_limit = 5005 
WTRc_limit = 11218 
RTWc_limit = 13595 
CCDLc_limit = 7653 
rwq = 0 
CCDLc_limit_alone = 6071 
WTRc_limit_alone = 10489 
RTWc_limit_alone = 12742 

Commands details: 
total_CMD = 20196503 
n_nop = 20155400 
Read = 17760 
Write = 0 
L2_Alloc = 0 
L2_WB = 2905 
n_act = 10406 
n_pre = 10390 
n_ref = 0 
n_req = 18488 
total_req = 20665 

Dual Bus Interface Util: 
issued_total_row = 20796 
issued_total_col = 20665 
Row_Bus_Util =  0.001030 
CoL_Bus_Util = 0.001023 
Either_Row_CoL_Bus_Util = 0.002035 
Issued_on_Two_Bus_Simul_Util = 0.000018 
issued_two_Eff = 0.008710 
queue_avg = 0.052503 


dram_util_bins: 0 0 0 0 0 0 0 0 0 0
dram_eff_bins: 0 0 0 0 0 0 0 0 0 0
mrqq: max=64 avg=0.0525028
Memory Partition 7: 
Cache L2_bank_014:
MSHR contents

Cache L2_bank_015:
MSHR contents

In Dram Latency Queue (total = 0): 
DRAM[7]: 16 bks, busW=2 BL=16 CL=24, tRRD=12 tCCD=4, tRCD=24 tRAS=55 tRP=24 tRC=78
n_cmd=20196503 n_nop=20156188 n_act=10181 n_pre=10165 n_ref_event=0 n_req=18258 n_rd=17540 n_rd_L2_A=0 n_write=0 n_wr_bk=2860 bw_util=0.00404
n_activity=723799 dram_eff=0.1127
bk0: 1213a 20142544i bk1: 1234a 20138983i bk2: 1178a 20147414i bk3: 1208a 20144857i bk4: 1054a 20151732i bk5: 1044a 20155585i bk6: 984a 20153074i bk7: 999a 20154815i bk8: 1045a 20154378i bk9: 1054a 20152941i bk10: 1182a 20151991i bk11: 1210a 20150866i bk12: 1007a 20156246i bk13: 1021a 20154043i bk14: 1066a 20152469i bk15: 1041a 20150913i 

------------------------------------------------------------------------

Row_Buffer_Locality = 0.442655
Row_Buffer_Locality_read = 0.446750
Row_Buffer_Locality_write = 0.342618
Bank_Level_Parallism = 1.806290
Bank_Level_Parallism_Col = 1.708932
Bank_Level_Parallism_Ready = 1.562861
write_to_read_ratio_blp_rw_average = 0.098627
GrpLevelPara = 1.325812 

BW Util details:
bwutil = 0.004040 
total_CMD = 20196503 
util_bw = 81600 
Wasted_Col = 198696 
Wasted_Row = 156335 
Idle = 19759872 

BW Util Bottlenecks: 
RCDc_limit = 203367 
RCDWRc_limit = 4769 
WTRc_limit = 11793 
RTWc_limit = 12936 
CCDLc_limit = 7818 
rwq = 0 
CCDLc_limit_alone = 6087 
WTRc_limit_alone = 10977 
RTWc_limit_alone = 12021 

Commands details: 
total_CMD = 20196503 
n_nop = 20156188 
Read = 17540 
Write = 0 
L2_Alloc = 0 
L2_WB = 2860 
n_act = 10181 
n_pre = 10165 
n_ref = 0 
n_req = 18258 
total_req = 20400 

Dual Bus Interface Util: 
issued_total_row = 20346 
issued_total_col = 20400 
Row_Bus_Util =  0.001007 
CoL_Bus_Util = 0.001010 
Either_Row_CoL_Bus_Util = 0.001996 
Issued_on_Two_Bus_Simul_Util = 0.000021 
issued_two_Eff = 0.010691 
queue_avg = 0.053848 


dram_util_bins: 0 0 0 0 0 0 0 0 0 0
dram_eff_bins: 0 0 0 0 0 0 0 0 0 0
mrqq: max=64 avg=0.0538483
Memory Partition 8: 
Cache L2_bank_016:
MSHR contents

Cache L2_bank_017:
MSHR contents

In Dram Latency Queue (total = 0): 
DRAM[8]: 16 bks, busW=2 BL=16 CL=24, tRRD=12 tCCD=4, tRCD=24 tRAS=55 tRP=24 tRC=78
n_cmd=20196503 n_nop=20155682 n_act=10365 n_pre=10349 n_ref_event=0 n_req=18359 n_rd=17639 n_rd_L2_A=0 n_write=0 n_wr_bk=2869 bw_util=0.004062
n_activity=727509 dram_eff=0.1128
bk0: 1232a 20138478i bk1: 1250a 20139308i bk2: 1226a 20146530i bk3: 1196a 20147763i bk4: 1042a 20153122i bk5: 1070a 20149124i bk6: 1001a 20155458i bk7: 1021a 20153314i bk8: 1054a 20154879i bk9: 1041a 20155371i bk10: 1199a 20149807i bk11: 1214a 20150553i bk12: 985a 20156087i bk13: 1001a 20156162i bk14: 1048a 20152380i bk15: 1059a 20150972i 

------------------------------------------------------------------------

Row_Buffer_Locality = 0.435754
Row_Buffer_Locality_read = 0.440444
Row_Buffer_Locality_write = 0.320833
Bank_Level_Parallism = 1.799878
Bank_Level_Parallism_Col = 1.733702
Bank_Level_Parallism_Ready = 1.615592
write_to_read_ratio_blp_rw_average = 0.095733
GrpLevelPara = 1.331316 

BW Util details:
bwutil = 0.004062 
total_CMD = 20196503 
util_bw = 82032 
Wasted_Col = 200646 
Wasted_Row = 157288 
Idle = 19756537 

BW Util Bottlenecks: 
RCDc_limit = 206456 
RCDWRc_limit = 4980 
WTRc_limit = 11716 
RTWc_limit = 11759 
CCDLc_limit = 7166 
rwq = 0 
CCDLc_limit_alone = 5728 
WTRc_limit_alone = 10979 
RTWc_limit_alone = 11058 

Commands details: 
total_CMD = 20196503 
n_nop = 20155682 
Read = 17639 
Write = 0 
L2_Alloc = 0 
L2_WB = 2869 
n_act = 10365 
n_pre = 10349 
n_ref = 0 
n_req = 18359 
total_req = 20508 

Dual Bus Interface Util: 
issued_total_row = 20714 
issued_total_col = 20508 
Row_Bus_Util =  0.001026 
CoL_Bus_Util = 0.001015 
Either_Row_CoL_Bus_Util = 0.002021 
Issued_on_Two_Bus_Simul_Util = 0.000020 
issued_two_Eff = 0.009823 
queue_avg = 0.051909 


dram_util_bins: 0 0 0 0 0 0 0 0 0 0
dram_eff_bins: 0 0 0 0 0 0 0 0 0 0
mrqq: max=64 avg=0.0519094
Memory Partition 9: 
Cache L2_bank_018:
MSHR contents

Cache L2_bank_019:
MSHR contents

In Dram Latency Queue (total = 0): 
DRAM[9]: 16 bks, busW=2 BL=16 CL=24, tRRD=12 tCCD=4, tRCD=24 tRAS=55 tRP=24 tRC=78
n_cmd=20196503 n_nop=20155568 n_act=10385 n_pre=10369 n_ref_event=0 n_req=18437 n_rd=17722 n_rd_L2_A=0 n_write=0 n_wr_bk=2853 bw_util=0.004075
n_activity=730511 dram_eff=0.1127
bk0: 1222a 20140582i bk1: 1253a 20140110i bk2: 1237a 20146485i bk3: 1223a 20145433i bk4: 1058a 20153125i bk5: 1041a 20153713i bk6: 1030a 20152040i bk7: 1028a 20152245i bk8: 1065a 20155447i bk9: 1068a 20154607i bk10: 1193a 20153304i bk11: 1200a 20152031i bk12: 997a 20158269i bk13: 980a 20157587i bk14: 1054a 20151152i bk15: 1073a 20150102i 

------------------------------------------------------------------------

Row_Buffer_Locality = 0.437056
Row_Buffer_Locality_read = 0.441203
Row_Buffer_Locality_write = 0.334266
Bank_Level_Parallism = 1.766856
Bank_Level_Parallism_Col = 1.664746
Bank_Level_Parallism_Ready = 1.482682
write_to_read_ratio_blp_rw_average = 0.100326
GrpLevelPara = 1.314970 

BW Util details:
bwutil = 0.004075 
total_CMD = 20196503 
util_bw = 82300 
Wasted_Col = 202862 
Wasted_Row = 158767 
Idle = 19752574 

BW Util Bottlenecks: 
RCDc_limit = 208487 
RCDWRc_limit = 4854 
WTRc_limit = 11630 
RTWc_limit = 13349 
CCDLc_limit = 8205 
rwq = 0 
CCDLc_limit_alone = 6414 
WTRc_limit_alone = 10808 
RTWc_limit_alone = 12380 

Commands details: 
total_CMD = 20196503 
n_nop = 20155568 
Read = 17722 
Write = 0 
L2_Alloc = 0 
L2_WB = 2853 
n_act = 10385 
n_pre = 10369 
n_ref = 0 
n_req = 18437 
total_req = 20575 

Dual Bus Interface Util: 
issued_total_row = 20754 
issued_total_col = 20575 
Row_Bus_Util =  0.001028 
CoL_Bus_Util = 0.001019 
Either_Row_CoL_Bus_Util = 0.002027 
Issued_on_Two_Bus_Simul_Util = 0.000020 
issued_two_Eff = 0.009625 
queue_avg = 0.049521 


dram_util_bins: 0 0 0 0 0 0 0 0 0 0
dram_eff_bins: 0 0 0 0 0 0 0 0 0 0
mrqq: max=64 avg=0.0495213
Memory Partition 10: 
Cache L2_bank_020:
MSHR contents

Cache L2_bank_021:
MSHR contents

In Dram Latency Queue (total = 0): 
DRAM[10]: 16 bks, busW=2 BL=16 CL=24, tRRD=12 tCCD=4, tRCD=24 tRAS=55 tRP=24 tRC=78
n_cmd=20196503 n_nop=20155996 n_act=10273 n_pre=10257 n_ref_event=0 n_req=18233 n_rd=17511 n_rd_L2_A=0 n_write=0 n_wr_bk=2871 bw_util=0.004037
n_activity=727120 dram_eff=0.1121
bk0: 1210a 20140147i bk1: 1242a 20141809i bk2: 1195a 20147551i bk3: 1202a 20144975i bk4: 1022a 20154208i bk5: 1006a 20153182i bk6: 987a 20153637i bk7: 1012a 20153591i bk8: 1045a 20155303i bk9: 1037a 20155028i bk10: 1231a 20149196i bk11: 1206a 20152589i bk12: 1010a 20156236i bk13: 1002a 20158207i bk14: 1072a 20150129i bk15: 1032a 20149257i 

------------------------------------------------------------------------

Row_Buffer_Locality = 0.436900
Row_Buffer_Locality_read = 0.439838
Row_Buffer_Locality_write = 0.365651
Bank_Level_Parallism = 1.783327
Bank_Level_Parallism_Col = 1.718136
Bank_Level_Parallism_Ready = 1.608161
write_to_read_ratio_blp_rw_average = 0.096550
GrpLevelPara = 1.321748 

BW Util details:
bwutil = 0.004037 
total_CMD = 20196503 
util_bw = 81528 
Wasted_Col = 201347 
Wasted_Row = 157680 
Idle = 19755948 

BW Util Bottlenecks: 
RCDc_limit = 206356 
RCDWRc_limit = 4569 
WTRc_limit = 10873 
RTWc_limit = 13498 
CCDLc_limit = 7264 
rwq = 0 
CCDLc_limit_alone = 5808 
WTRc_limit_alone = 10201 
RTWc_limit_alone = 12714 

Commands details: 
total_CMD = 20196503 
n_nop = 20155996 
Read = 17511 
Write = 0 
L2_Alloc = 0 
L2_WB = 2871 
n_act = 10273 
n_pre = 10257 
n_ref = 0 
n_req = 18233 
total_req = 20382 

Dual Bus Interface Util: 
issued_total_row = 20530 
issued_total_col = 20382 
Row_Bus_Util =  0.001017 
CoL_Bus_Util = 0.001009 
Either_Row_CoL_Bus_Util = 0.002006 
Issued_on_Two_Bus_Simul_Util = 0.000020 
issued_two_Eff = 0.009998 
queue_avg = 0.052358 


dram_util_bins: 0 0 0 0 0 0 0 0 0 0
dram_eff_bins: 0 0 0 0 0 0 0 0 0 0
mrqq: max=64 avg=0.0523584
Memory Partition 11: 
Cache L2_bank_022:
MSHR contents

Cache L2_bank_023:
MSHR contents

In Dram Latency Queue (total = 0): 
DRAM[11]: 16 bks, busW=2 BL=16 CL=24, tRRD=12 tCCD=4, tRCD=24 tRAS=55 tRP=24 tRC=78
n_cmd=20196503 n_nop=20155854 n_act=10307 n_pre=10291 n_ref_event=0 n_req=18340 n_rd=17623 n_rd_L2_A=0 n_write=0 n_wr_bk=2857 bw_util=0.004056
n_activity=725719 dram_eff=0.1129
bk0: 1267a 20139363i bk1: 1247a 20138121i bk2: 1200a 20144491i bk3: 1223a 20141689i bk4: 1032a 20155933i bk5: 1053a 20154946i bk6: 1017a 20153568i bk7: 1017a 20151484i bk8: 1082a 20153950i bk9: 1035a 20153420i bk10: 1170a 20152697i bk11: 1175a 20151664i bk12: 979a 20156973i bk13: 1009a 20154969i bk14: 1048a 20149528i bk15: 1069a 20148604i 

------------------------------------------------------------------------

Row_Buffer_Locality = 0.438332
Row_Buffer_Locality_read = 0.443284
Row_Buffer_Locality_write = 0.316597
Bank_Level_Parallism = 1.815857
Bank_Level_Parallism_Col = 1.749935
Bank_Level_Parallism_Ready = 1.601983
write_to_read_ratio_blp_rw_average = 0.096455
GrpLevelPara = 1.329642 

BW Util details:
bwutil = 0.004056 
total_CMD = 20196503 
util_bw = 81920 
Wasted_Col = 200683 
Wasted_Row = 157738 
Idle = 19756162 

BW Util Bottlenecks: 
RCDc_limit = 205463 
RCDWRc_limit = 4583 
WTRc_limit = 10832 
RTWc_limit = 13604 
CCDLc_limit = 7323 
rwq = 0 
CCDLc_limit_alone = 5766 
WTRc_limit_alone = 10156 
RTWc_limit_alone = 12723 

Commands details: 
total_CMD = 20196503 
n_nop = 20155854 
Read = 17623 
Write = 0 
L2_Alloc = 0 
L2_WB = 2857 
n_act = 10307 
n_pre = 10291 
n_ref = 0 
n_req = 18340 
total_req = 20480 

Dual Bus Interface Util: 
issued_total_row = 20598 
issued_total_col = 20480 
Row_Bus_Util =  0.001020 
CoL_Bus_Util = 0.001014 
Either_Row_CoL_Bus_Util = 0.002013 
Issued_on_Two_Bus_Simul_Util = 0.000021 
issued_two_Eff = 0.010554 
queue_avg = 0.052434 


dram_util_bins: 0 0 0 0 0 0 0 0 0 0
dram_eff_bins: 0 0 0 0 0 0 0 0 0 0
mrqq: max=64 avg=0.052434

========= L2 cache stats =========
L2_cache_bank[0]: Access = 130618, Miss = 10519, Miss_rate = 0.081, Pending_hits = 873, Reservation_fails = 284
L2_cache_bank[1]: Access = 125948, Miss = 10475, Miss_rate = 0.083, Pending_hits = 858, Reservation_fails = 545
L2_cache_bank[2]: Access = 129088, Miss = 10459, Miss_rate = 0.081, Pending_hits = 800, Reservation_fails = 267
L2_cache_bank[3]: Access = 131717, Miss = 10447, Miss_rate = 0.079, Pending_hits = 794, Reservation_fails = 460
L2_cache_bank[4]: Access = 131627, Miss = 10421, Miss_rate = 0.079, Pending_hits = 769, Reservation_fails = 849
L2_cache_bank[5]: Access = 128445, Miss = 10399, Miss_rate = 0.081, Pending_hits = 815, Reservation_fails = 718
L2_cache_bank[6]: Access = 127296, Miss = 10561, Miss_rate = 0.083, Pending_hits = 724, Reservation_fails = 1191
L2_cache_bank[7]: Access = 128494, Miss = 10366, Miss_rate = 0.081, Pending_hits = 825, Reservation_fails = 558
L2_cache_bank[8]: Access = 132874, Miss = 10389, Miss_rate = 0.078, Pending_hits = 811, Reservation_fails = 181
L2_cache_bank[9]: Access = 130779, Miss = 10365, Miss_rate = 0.079, Pending_hits = 853, Reservation_fails = 310
L2_cache_bank[10]: Access = 181529, Miss = 10475, Miss_rate = 0.058, Pending_hits = 883, Reservation_fails = 784
L2_cache_bank[11]: Access = 128909, Miss = 10419, Miss_rate = 0.081, Pending_hits = 815, Reservation_fails = 1029
L2_cache_bank[12]: Access = 156401, Miss = 10530, Miss_rate = 0.067, Pending_hits = 792, Reservation_fails = 524
L2_cache_bank[13]: Access = 129044, Miss = 10431, Miss_rate = 0.081, Pending_hits = 827, Reservation_fails = 543
L2_cache_bank[14]: Access = 128018, Miss = 10330, Miss_rate = 0.081, Pending_hits = 822, Reservation_fails = 555
L2_cache_bank[15]: Access = 127896, Miss = 10410, Miss_rate = 0.081, Pending_hits = 780, Reservation_fails = 531
L2_cache_bank[16]: Access = 131654, Miss = 10397, Miss_rate = 0.079, Pending_hits = 787, Reservation_fails = 379
L2_cache_bank[17]: Access = 127521, Miss = 10458, Miss_rate = 0.082, Pending_hits = 747, Reservation_fails = 923
L2_cache_bank[18]: Access = 126646, Miss = 10467, Miss_rate = 0.083, Pending_hits = 791, Reservation_fails = 218
L2_cache_bank[19]: Access = 126790, Miss = 10473, Miss_rate = 0.083, Pending_hits = 720, Reservation_fails = 777
L2_cache_bank[20]: Access = 129057, Miss = 10381, Miss_rate = 0.080, Pending_hits = 818, Reservation_fails = 1030
L2_cache_bank[21]: Access = 132370, Miss = 10341, Miss_rate = 0.078, Pending_hits = 782, Reservation_fails = 538
L2_cache_bank[22]: Access = 129055, Miss = 10399, Miss_rate = 0.081, Pending_hits = 715, Reservation_fails = 1108
L2_cache_bank[23]: Access = 125635, Miss = 10430, Miss_rate = 0.083, Pending_hits = 771, Reservation_fails = 1117
L2_total_cache_accesses = 3177411
L2_total_cache_misses = 250342
L2_total_cache_miss_rate = 0.0788
L2_total_cache_pending_hits = 19172
L2_total_cache_reservation_fails = 15419
L2_total_cache_breakdown:
	L2_cache_stats_breakdown[GLOBAL_ACC_R][HIT] = 2722124
	L2_cache_stats_breakdown[GLOBAL_ACC_R][HIT_RESERVED] = 19153
	L2_cache_stats_breakdown[GLOBAL_ACC_R][MISS] = 53464
	L2_cache_stats_breakdown[GLOBAL_ACC_R][RESERVATION_FAIL] = 15419
	L2_cache_stats_breakdown[GLOBAL_ACC_R][SECTOR_MISS] = 158395
	L2_cache_stats_breakdown[GLOBAL_ACC_R][MSHR_HIT] = 19153
	L2_cache_stats_breakdown[LOCAL_ACC_R][HIT] = 0
	L2_cache_stats_breakdown[LOCAL_ACC_R][HIT_RESERVED] = 0
	L2_cache_stats_breakdown[LOCAL_ACC_R][MISS] = 0
	L2_cache_stats_breakdown[LOCAL_ACC_R][RESERVATION_FAIL] = 0
	L2_cache_stats_breakdown[LOCAL_ACC_R][SECTOR_MISS] = 0
	L2_cache_stats_breakdown[LOCAL_ACC_R][MSHR_HIT] = 0
	L2_cache_stats_breakdown[CONST_ACC_R][HIT] = 0
	L2_cache_stats_breakdown[CONST_ACC_R][HIT_RESERVED] = 0
	L2_cache_stats_breakdown[CONST_ACC_R][MISS] = 0
	L2_cache_stats_breakdown[CONST_ACC_R][RESERVATION_FAIL] = 0
	L2_cache_stats_breakdown[CONST_ACC_R][SECTOR_MISS] = 0
	L2_cache_stats_breakdown[CONST_ACC_R][MSHR_HIT] = 0
	L2_cache_stats_breakdown[TEXTURE_ACC_R][HIT] = 0
	L2_cache_stats_breakdown[TEXTURE_ACC_R][HIT_RESERVED] = 0
	L2_cache_stats_breakdown[TEXTURE_ACC_R][MISS] = 0
	L2_cache_stats_breakdown[TEXTURE_ACC_R][RESERVATION_FAIL] = 0
	L2_cache_stats_breakdown[TEXTURE_ACC_R][SECTOR_MISS] = 0
	L2_cache_stats_breakdown[TEXTURE_ACC_R][MSHR_HIT] = 0
	L2_cache_stats_breakdown[GLOBAL_ACC_W][HIT] = 185773
	L2_cache_stats_breakdown[GLOBAL_ACC_W][HIT_RESERVED] = 19
	L2_cache_stats_breakdown[GLOBAL_ACC_W][MISS] = 9631
	L2_cache_stats_breakdown[GLOBAL_ACC_W][RESERVATION_FAIL] = 0
	L2_cache_stats_breakdown[GLOBAL_ACC_W][SECTOR_MISS] = 28852
	L2_cache_stats_breakdown[GLOBAL_ACC_W][MSHR_HIT] = 0
	L2_cache_stats_breakdown[LOCAL_ACC_W][HIT] = 0
	L2_cache_stats_breakdown[LOCAL_ACC_W][HIT_RESERVED] = 0
	L2_cache_stats_breakdown[LOCAL_ACC_W][MISS] = 0
	L2_cache_stats_breakdown[LOCAL_ACC_W][RESERVATION_FAIL] = 0
	L2_cache_stats_breakdown[LOCAL_ACC_W][SECTOR_MISS] = 0
	L2_cache_stats_breakdown[LOCAL_ACC_W][MSHR_HIT] = 0
	L2_cache_stats_breakdown[L1_WRBK_ACC][HIT] = 0
	L2_cache_stats_breakdown[L1_WRBK_ACC][HIT_RESERVED] = 0
	L2_cache_stats_breakdown[L1_WRBK_ACC][MISS] = 0
	L2_cache_stats_breakdown[L1_WRBK_ACC][RESERVATION_FAIL] = 0
	L2_cache_stats_breakdown[L1_WRBK_ACC][SECTOR_MISS] = 0
	L2_cache_stats_breakdown[L1_WRBK_ACC][MSHR_HIT] = 0
	L2_cache_stats_breakdown[L2_WRBK_ACC][HIT] = 0
	L2_cache_stats_breakdown[L2_WRBK_ACC][HIT_RESERVED] = 0
	L2_cache_stats_breakdown[L2_WRBK_ACC][MISS] = 0
	L2_cache_stats_breakdown[L2_WRBK_ACC][RESERVATION_FAIL] = 0
	L2_cache_stats_breakdown[L2_WRBK_ACC][SECTOR_MISS] = 0
	L2_cache_stats_breakdown[L2_WRBK_ACC][MSHR_HIT] = 0
	L2_cache_stats_breakdown[INST_ACC_R][HIT] = 0
	L2_cache_stats_breakdown[INST_ACC_R][HIT_RESERVED] = 0
	L2_cache_stats_breakdown[INST_ACC_R][MISS] = 0
	L2_cache_stats_breakdown[INST_ACC_R][RESERVATION_FAIL] = 0
	L2_cache_stats_breakdown[INST_ACC_R][SECTOR_MISS] = 0
	L2_cache_stats_breakdown[INST_ACC_R][MSHR_HIT] = 0
	L2_cache_stats_breakdown[L1_WR_ALLOC_R][HIT] = 0
	L2_cache_stats_breakdown[L1_WR_ALLOC_R][HIT_RESERVED] = 0
	L2_cache_stats_breakdown[L1_WR_ALLOC_R][MISS] = 0
	L2_cache_stats_breakdown[L1_WR_ALLOC_R][RESERVATION_FAIL] = 0
	L2_cache_stats_breakdown[L1_WR_ALLOC_R][SECTOR_MISS] = 0
	L2_cache_stats_breakdown[L1_WR_ALLOC_R][MSHR_HIT] = 0
	L2_cache_stats_breakdown[L2_WR_ALLOC_R][HIT] = 0
	L2_cache_stats_breakdown[L2_WR_ALLOC_R][HIT_RESERVED] = 0
	L2_cache_stats_breakdown[L2_WR_ALLOC_R][MISS] = 0
	L2_cache_stats_breakdown[L2_WR_ALLOC_R][RESERVATION_FAIL] = 0
	L2_cache_stats_breakdown[L2_WR_ALLOC_R][SECTOR_MISS] = 0
	L2_cache_stats_breakdown[L2_WR_ALLOC_R][MSHR_HIT] = 0
	L2_cache_stats_breakdown[GLOBAL_ACC_R][TOTAL_ACCESS] = 2953136
	L2_cache_stats_breakdown[GLOBAL_ACC_W][TOTAL_ACCESS] = 224275
L2_total_cache_reservation_fail_breakdown:
	L2_cache_stats_fail_breakdown[GLOBAL_ACC_R][MSHR_ENRTY_FAIL] = 25
	L2_cache_stats_fail_breakdown[GLOBAL_ACC_R][MSHR_MERGE_ENRTY_FAIL] = 15394
L2_cache_data_port_util = 0.015
L2_cache_fill_port_util = 0.001

icnt_total_pkts_mem_to_simt=3177411
icnt_total_pkts_simt_to_mem=3177411
LD_mem_lat_dist  0 0 0 0 0 0 0 0 0 0 0 0 0 0 0 0 0 0 0 0 0 0 0 0 0 0 0
ST_mem_lat_dist  0 0 0 0 0 0 0 0 0 0 0 0 0 0 0 0 0 0 0 0 0 0 0 0 0 0 0
----------------------------Interconnect-DETAILS--------------------------------
Req_Network_injected_packets_num = 3177411
Req_Network_cycles = 7875532
Req_Network_injected_packets_per_cycle =       0.4035 
Req_Network_conflicts_per_cycle =       0.1319
Req_Network_conflicts_per_cycle_util =       1.2284
Req_Bank_Level_Parallism =       3.7573
Req_Network_in_buffer_full_per_cycle =       0.0000
Req_Network_in_buffer_avg_util =       0.4096
Req_Network_out_buffer_full_per_cycle =       0.0000
Req_Network_out_buffer_avg_util =       0.0468

Reply_Network_injected_packets_num = 3177411
Reply_Network_cycles = 7875532
Reply_Network_injected_packets_per_cycle =        0.4035
Reply_Network_conflicts_per_cycle =        0.2083
Reply_Network_conflicts_per_cycle_util =       1.9313
Reply_Bank_Level_Parallism =       3.7401
Reply_Network_in_buffer_full_per_cycle =       0.0000
Reply_Network_in_buffer_avg_util =       0.0693
Reply_Network_out_buffer_full_per_cycle =       0.0000
Reply_Network_out_buffer_avg_util =       0.0134
----------------------------END-of-Interconnect-DETAILS-------------------------


gpgpu_simulation_time = 0 days, 3 hrs, 14 min, 34 sec (11674 sec)
gpgpu_simulation_rate = 2445 (inst/sec)
gpgpu_simulation_rate = 674 (cycle/sec)
gpgpu_silicon_slowdown = 2025222x
