

        *** GPGPU-Sim Simulator Version 4.2.0  [build gpgpu-sim_git-commit-5e9d31b8132651796656877ecb58fde27177ba7a_modified_315.0] ***


GPGPU-Sim PTX: simulation mode 0 (can change with PTX_SIM_MODE_FUNC environment variable:
               1=functional simulation only, 0=detailed performance simulator)
GPGPU-Sim PTX: overriding embedded ptx with ptx file (PTX_SIM_USE_PTX_FILE is set)
GPGPU-Sim: Configuration options:

-save_embedded_ptx                      0 # saves ptx files embedded in binary as <n>.ptx
-keep                                   0 # keep intermediate files created by GPGPU-Sim when interfacing with external programs
-gpgpu_ptx_save_converted_ptxplus                    0 # Saved converted ptxplus to a file
-gpgpu_occupancy_sm_number                   75 # The SM number to pass to ptxas when getting register usage for computing GPU occupancy. This parameter is required in the config.
-ptx_opcode_latency_int           4,4,4,4,21 # Opcode latencies for integers <ADD,MAX,MUL,MAD,DIV,SHFL>Default 1,1,19,25,145,32
-ptx_opcode_latency_fp           4,4,4,4,39 # Opcode latencies for single precision floating points <ADD,MAX,MUL,MAD,DIV>Default 1,1,1,1,30
-ptx_opcode_latency_dp      64,64,64,64,330 # Opcode latencies for double precision floating points <ADD,MAX,MUL,MAD,DIV>Default 8,8,8,8,335
-ptx_opcode_latency_sfu                   21 # Opcode latencies for SFU instructionsDefault 8
-ptx_opcode_latency_tesnor                   64 # Opcode latencies for Tensor instructionsDefault 64
-ptx_opcode_initiation_int            2,2,2,2,2 # Opcode initiation intervals for integers <ADD,MAX,MUL,MAD,DIV,SHFL>Default 1,1,4,4,32,4
-ptx_opcode_initiation_fp            2,2,2,2,4 # Opcode initiation intervals for single precision floating points <ADD,MAX,MUL,MAD,DIV>Default 1,1,1,1,5
-ptx_opcode_initiation_dp      64,64,64,64,130 # Opcode initiation intervals for double precision floating points <ADD,MAX,MUL,MAD,DIV>Default 8,8,8,8,130
-ptx_opcode_initiation_sfu                    8 # Opcode initiation intervals for sfu instructionsDefault 8
-ptx_opcode_initiation_tensor                   64 # Opcode initiation intervals for tensor instructionsDefault 64
-cdp_latency         7200,8000,100,12000,1600 # CDP API latency <cudaStreamCreateWithFlags, cudaGetParameterBufferV2_init_perWarp, cudaGetParameterBufferV2_perKernel, cudaLaunchDeviceV2_init_perWarp, cudaLaunchDevicV2_perKernel>Default 7200,8000,100,12000,1600
-network_mode                           2 # Interconnection network mode
-inter_config_file                   mesh # Interconnection network config file
-icnt_in_buffer_limit                  512 # in_buffer_limit
-icnt_out_buffer_limit                  512 # out_buffer_limit
-icnt_subnets                           2 # subnets
-icnt_arbiter_algo                      1 # arbiter_algo
-icnt_verbose                           0 # inct_verbose
-icnt_grant_cycles                      1 # grant_cycles
-gpgpu_ptx_use_cuobjdump                    1 # Use cuobjdump to extract ptx and sass from binaries
-gpgpu_experimental_lib_support                    0 # Try to extract code from cuda libraries [Broken because of unknown cudaGetExportTable]
-checkpoint_option                      0 #  checkpointing flag (0 = no checkpoint)
-checkpoint_kernel                      1 #  checkpointing during execution of which kernel (1- 1st kernel)
-checkpoint_CTA                         0 #  checkpointing after # of CTA (< less than total CTA)
-resume_option                          0 #  resume flag (0 = no resume)
-resume_kernel                          0 #  Resume from which kernel (1= 1st kernel)
-resume_CTA                             0 #  resume from which CTA 
-checkpoint_CTA_t                       0 #  resume from which CTA 
-checkpoint_insn_Y                      0 #  resume from which CTA 
-gpgpu_ptx_convert_to_ptxplus                    0 # Convert SASS (native ISA) to ptxplus and run ptxplus
-gpgpu_ptx_force_max_capability                   75 # Force maximum compute capability
-gpgpu_ptx_inst_debug_to_file                    0 # Dump executed instructions' debug information to file
-gpgpu_ptx_inst_debug_file       inst_debug.txt # Executed instructions' debug output file
-gpgpu_ptx_inst_debug_thread_uid                    1 # Thread UID for executed instructions' debug output
-gpgpu_simd_model                       1 # 1 = post-dominator
-gpgpu_shader_core_pipeline              1024:32 # shader core pipeline config, i.e., {<nthread>:<warpsize>}
-gpgpu_tex_cache:l1  N:4:128:256,L:R:m:N:L,T:512:8,128:2 # per-shader L1 texture cache  (READ-ONLY) config  {<nsets>:<bsize>:<assoc>,<rep>:<wr>:<alloc>:<wr_alloc>,<mshr>:<N>:<merge>,<mq>:<rf>}
-gpgpu_const_cache:l1 N:128:64:8,L:R:f:N:L,S:2:64,4 # per-shader L1 constant memory cache  (READ-ONLY) config  {<nsets>:<bsize>:<assoc>,<rep>:<wr>:<alloc>:<wr_alloc>,<mshr>:<N>:<merge>,<mq>} 
-gpgpu_cache:il1     N:64:128:16,L:R:f:N:L,S:2:48,4 # shader L1 instruction cache config  {<nsets>:<bsize>:<assoc>,<rep>:<wr>:<alloc>:<wr_alloc>,<mshr>:<N>:<merge>,<mq>} 
-gpgpu_cache:dl1     S:4:128:64,L:T:m:L:L,A:256:32,16:0,32 # per-shader L1 data cache config  {<nsets>:<bsize>:<assoc>,<rep>:<wr>:<alloc>:<wr_alloc>,<mshr>:<N>:<merge>,<mq> | none}
-gpgpu_l1_cache_write_ratio                   25 # L1D write ratio
-gpgpu_l1_banks                         4 # The number of L1 cache banks
-gpgpu_l1_banks_byte_interleaving                   32 # l1 banks byte interleaving granularity
-gpgpu_l1_banks_hashing_function                    0 # l1 banks hashing function
-gpgpu_l1_latency                      32 # L1 Hit Latency
-gpgpu_smem_latency                    30 # smem Latency
-gpgpu_cache:dl1PrefL1                 none # per-shader L1 data cache config  {<nsets>:<bsize>:<assoc>,<rep>:<wr>:<alloc>:<wr_alloc>,<mshr>:<N>:<merge>,<mq> | none}
-gpgpu_cache:dl1PrefShared                 none # per-shader L1 data cache config  {<nsets>:<bsize>:<assoc>,<rep>:<wr>:<alloc>:<wr_alloc>,<mshr>:<N>:<merge>,<mq> | none}
-gpgpu_gmem_skip_L1D                    0 # global memory access skip L1D cache (implements -Xptxas -dlcm=cg, default=no skip)
-gpgpu_perfect_mem                      0 # enable perfect memory mode (no cache miss)
-n_regfile_gating_group                    4 # group of lanes that should be read/written together)
-gpgpu_clock_gated_reg_file                    0 # enable clock gated reg file for power calculations
-gpgpu_clock_gated_lanes                    0 # enable clock gated lanes for power calculations
-gpgpu_shader_registers                65536 # Number of registers per shader core. Limits number of concurrent CTAs. (default 8192)
-gpgpu_registers_per_block                65536 # Maximum number of registers per CTA. (default 8192)
-gpgpu_ignore_resources_limitation                    0 # gpgpu_ignore_resources_limitation (default 0)
-gpgpu_shader_cta                      16 # Maximum number of concurrent CTAs in shader (default 32)
-gpgpu_num_cta_barriers                   16 # Maximum number of named barriers per CTA (default 16)
-gpgpu_n_clusters                      30 # number of processing clusters
-gpgpu_n_cores_per_cluster                    1 # number of simd cores per cluster
-gpgpu_n_cluster_ejection_buffer_size                   32 # number of packets in ejection buffer
-gpgpu_n_ldst_response_buffer_size                    2 # number of response packets in ld/st unit ejection buffer
-gpgpu_shmem_per_block                49152 # Size of shared memory per thread block or CTA (default 48kB)
-gpgpu_shmem_size                   65536 # Size of shared memory per shader core (default 16kB)
-gpgpu_shmem_option                 32,64 # Option list of shared memory sizes
-gpgpu_unified_l1d_size                   96 # Size of unified data cache(L1D + shared memory) in KB
-gpgpu_adaptive_cache_config                    1 # adaptive_cache_config
-gpgpu_shmem_sizeDefault                65536 # Size of shared memory per shader core (default 16kB)
-gpgpu_shmem_size_PrefL1                16384 # Size of shared memory per shader core (default 16kB)
-gpgpu_shmem_size_PrefShared                16384 # Size of shared memory per shader core (default 16kB)
-gpgpu_shmem_num_banks                   32 # Number of banks in the shared memory in each shader core (default 16)
-gpgpu_shmem_limited_broadcast                    0 # Limit shared memory to do one broadcast per cycle (default on)
-gpgpu_shmem_warp_parts                    1 # Number of portions a warp is divided into for shared memory bank conflict check 
-gpgpu_mem_unit_ports                    1 # The number of memory transactions allowed per core cycle
-gpgpu_shmem_warp_parts                    1 # Number of portions a warp is divided into for shared memory bank conflict check 
-gpgpu_warpdistro_shader                   -1 # Specify which shader core to collect the warp size distribution from
-gpgpu_warp_issue_shader                    0 # Specify which shader core to collect the warp issue distribution from
-gpgpu_local_mem_map                    1 # Mapping from local memory space address to simulated GPU physical address space (default = enabled)
-gpgpu_num_reg_banks                    8 # Number of register banks (default = 8)
-gpgpu_reg_bank_use_warp_id                    0 # Use warp ID in mapping registers to banks (default = off)
-gpgpu_sub_core_model                    1 # Sub Core Volta/Pascal model (default = off)
-gpgpu_enable_specialized_operand_collector                    0 # enable_specialized_operand_collector
-gpgpu_operand_collector_num_units_sp                    4 # number of collector units (default = 4)
-gpgpu_operand_collector_num_units_dp                    0 # number of collector units (default = 0)
-gpgpu_operand_collector_num_units_sfu                    4 # number of collector units (default = 4)
-gpgpu_operand_collector_num_units_int                    0 # number of collector units (default = 0)
-gpgpu_operand_collector_num_units_tensor_core                    4 # number of collector units (default = 4)
-gpgpu_operand_collector_num_units_mem                    2 # number of collector units (default = 2)
-gpgpu_operand_collector_num_units_gen                    8 # number of collector units (default = 0)
-gpgpu_operand_collector_num_in_ports_sp                    1 # number of collector unit in ports (default = 1)
-gpgpu_operand_collector_num_in_ports_dp                    0 # number of collector unit in ports (default = 0)
-gpgpu_operand_collector_num_in_ports_sfu                    1 # number of collector unit in ports (default = 1)
-gpgpu_operand_collector_num_in_ports_int                    0 # number of collector unit in ports (default = 0)
-gpgpu_operand_collector_num_in_ports_tensor_core                    1 # number of collector unit in ports (default = 1)
-gpgpu_operand_collector_num_in_ports_mem                    1 # number of collector unit in ports (default = 1)
-gpgpu_operand_collector_num_in_ports_gen                    8 # number of collector unit in ports (default = 0)
-gpgpu_operand_collector_num_out_ports_sp                    1 # number of collector unit in ports (default = 1)
-gpgpu_operand_collector_num_out_ports_dp                    0 # number of collector unit in ports (default = 0)
-gpgpu_operand_collector_num_out_ports_sfu                    1 # number of collector unit in ports (default = 1)
-gpgpu_operand_collector_num_out_ports_int                    0 # number of collector unit in ports (default = 0)
-gpgpu_operand_collector_num_out_ports_tensor_core                    1 # number of collector unit in ports (default = 1)
-gpgpu_operand_collector_num_out_ports_mem                    1 # number of collector unit in ports (default = 1)
-gpgpu_operand_collector_num_out_ports_gen                    8 # number of collector unit in ports (default = 0)
-gpgpu_coalesce_arch                   75 # Coalescing arch (GT200 = 13, Fermi = 20)
-gpgpu_num_sched_per_core                    4 # Number of warp schedulers per core
-gpgpu_max_insn_issue_per_warp                    1 # Max number of instructions that can be issued per warp in one cycle by scheduler (either 1 or 2)
-gpgpu_dual_issue_diff_exec_units                    1 # should dual issue use two different execution unit resources (Default = 1)
-gpgpu_simt_core_sim_order                    1 # Select the simulation order of cores in a cluster (0=Fix, 1=Round-Robin)
-gpgpu_pipeline_widths 4,4,4,4,4,4,4,4,4,4,8,4,4 # Pipeline widths ID_OC_SP,ID_OC_DP,ID_OC_INT,ID_OC_SFU,ID_OC_MEM,OC_EX_SP,OC_EX_DP,OC_EX_INT,OC_EX_SFU,OC_EX_MEM,EX_WB,ID_OC_TENSOR_CORE,OC_EX_TENSOR_CORE
-gpgpu_tensor_core_avail                    1 # Tensor Core Available (default=0)
-gpgpu_num_sp_units                     4 # Number of SP units (default=1)
-gpgpu_num_dp_units                     4 # Number of DP units (default=0)
-gpgpu_num_int_units                    4 # Number of INT units (default=0)
-gpgpu_num_sfu_units                    4 # Number of SF units (default=1)
-gpgpu_num_tensor_core_units                    4 # Number of tensor_core units (default=1)
-gpgpu_num_mem_units                    1 # Number if ldst units (default=1) WARNING: not hooked up to anything
-gpgpu_scheduler                      lrr # Scheduler configuration: < lrr | gto | two_level_active > If two_level_active:<num_active_warps>:<inner_prioritization>:<outer_prioritization>For complete list of prioritization values see shader.h enum scheduler_prioritization_typeDefault: gto
-gpgpu_concurrent_kernel_sm                    0 # Support concurrent kernels on a SM (default = disabled)
-gpgpu_perfect_inst_const_cache                    1 # perfect inst and const cache mode, so all inst and const hits in the cache(default = disabled)
-gpgpu_inst_fetch_throughput                    4 # the number of fetched intruction per warp each cycle
-gpgpu_reg_file_port_throughput                    2 # the number ports of the register file
-specialized_unit_1         0,4,4,4,4,BRA # specialized unit config {<enabled>,<num_units>:<latency>:<initiation>,<ID_OC_SPEC>:<OC_EX_SPEC>,<NAME>}
-specialized_unit_2         0,4,4,4,4,BRA # specialized unit config {<enabled>,<num_units>:<latency>:<initiation>,<ID_OC_SPEC>:<OC_EX_SPEC>,<NAME>}
-specialized_unit_3         0,4,4,4,4,BRA # specialized unit config {<enabled>,<num_units>:<latency>:<initiation>,<ID_OC_SPEC>:<OC_EX_SPEC>,<NAME>}
-specialized_unit_4         0,4,4,4,4,BRA # specialized unit config {<enabled>,<num_units>:<latency>:<initiation>,<ID_OC_SPEC>:<OC_EX_SPEC>,<NAME>}
-specialized_unit_5         0,4,4,4,4,BRA # specialized unit config {<enabled>,<num_units>:<latency>:<initiation>,<ID_OC_SPEC>:<OC_EX_SPEC>,<NAME>}
-specialized_unit_6         0,4,4,4,4,BRA # specialized unit config {<enabled>,<num_units>:<latency>:<initiation>,<ID_OC_SPEC>:<OC_EX_SPEC>,<NAME>}
-specialized_unit_7         0,4,4,4,4,BRA # specialized unit config {<enabled>,<num_units>:<latency>:<initiation>,<ID_OC_SPEC>:<OC_EX_SPEC>,<NAME>}
-specialized_unit_8         0,4,4,4,4,BRA # specialized unit config {<enabled>,<num_units>:<latency>:<initiation>,<ID_OC_SPEC>:<OC_EX_SPEC>,<NAME>}
-gpgpu_perf_sim_memcpy                    1 # Fill the L2 cache on memcpy
-gpgpu_simple_dram_model                    0 # simple_dram_model with fixed latency and BW
-gpgpu_dram_scheduler                    1 # 0 = fifo, 1 = FR-FCFS (defaul)
-gpgpu_dram_partition_queues          64:64:64:64 # i2$:$2d:d2$:$2i
-l2_ideal                               0 # Use a ideal L2 cache that always hit
-gpgpu_cache:dl2     S:64:128:16,L:B:m:L:P,A:192:4,32:0,32 # unified banked L2 data cache config  {<nsets>:<bsize>:<assoc>,<rep>:<wr>:<alloc>:<wr_alloc>,<mshr>:<N>:<merge>,<mq>}
-gpgpu_cache:dl2_texture_only                    0 # L2 cache used for texture only
-gpgpu_n_mem                           12 # number of memory modules (e.g. memory controllers) in gpu
-gpgpu_n_sub_partition_per_mchannel                    2 # number of memory subpartition in each memory module
-gpgpu_n_mem_per_ctrlr                    1 # number of memory chips per memory controller
-gpgpu_memlatency_stat                   14 # track and display latency statistics 0x2 enables MC, 0x4 enables queue logs
-gpgpu_frfcfs_dram_sched_queue_size                   64 # 0 = unlimited (default); # entries per chip
-gpgpu_dram_return_queue_size                  192 # 0 = unlimited (default); # entries per chip
-gpgpu_dram_buswidth                    2 # default = 4 bytes (8 bytes per cycle at DDR)
-gpgpu_dram_burst_length                   16 # Burst length of each DRAM request (default = 4 data bus cycle)
-dram_data_command_freq_ratio                    4 # Frequency ratio between DRAM data bus and command bus (default = 2 times, i.e. DDR)
-gpgpu_dram_timing_opt nbk=16:CCD=4:RRD=12:RCD=24:RAS=55:RP=24:RC=78:CL=24:WL=8:CDLR=10:WR=24:nbkgrp=4:CCDL=6:RTPL=4 # DRAM timing parameters = {nbk:tCCD:tRRD:tRCD:tRAS:tRP:tRC:CL:WL:tCDLR:tWR:nbkgrp:tCCDL:tRTPL}
-gpgpu_l2_rop_latency                  194 # ROP queue latency (default 85)
-dram_latency                          96 # DRAM latency (default 30)
-dram_dual_bus_interface                    0 # dual_bus_interface (default = 0) 
-dram_bnk_indexing_policy                    0 # dram_bnk_indexing_policy (0 = normal indexing, 1 = Xoring with the higher bits) (Default = 0)
-dram_bnkgrp_indexing_policy                    1 # dram_bnkgrp_indexing_policy (0 = take higher bits, 1 = take lower bits) (Default = 0)
-dram_seperate_write_queue_enable                    0 # Seperate_Write_Queue_Enable
-dram_write_queue_size             32:28:16 # Write_Queue_Size
-dram_elimnate_rw_turnaround                    0 # elimnate_rw_turnaround i.e set tWTR and tRTW = 0
-icnt_flit_size                        40 # icnt_flit_size
-icnt_flit_size                        40 # icnt_flit_size
-mem_profiler                           0 # memory access runtime profiling (0 = not enabled)
-gpgpu_mem_addr_mapping dramid@8;00000000.00000000.00000000.00000000.0000RRRR.RRRRRRRR.RBBBCCCC.BCCSSSSS # mapping memory address to dram model {dramid@<start bit>;<memory address map>}
-gpgpu_mem_addr_test                    0 # run sweep test to check address mapping for aliased address
-gpgpu_mem_address_mask                    1 # 0 = old addressing mask, 1 = new addressing mask, 2 = new add. mask + flipped bank sel and chip sel bits
-gpgpu_memory_partition_indexing                    0 # 0 = no indexing, 1 = bitwise xoring, 2 = IPoly, 3 = custom indexing
-accelwattch_xml_file accelwattch_sass_sim.xml # AccelWattch XML file
-power_simulation_enabled                    1 # Turn on power simulator (1=On, 0=Off)
-power_per_cycle_dump                    1 # Dump detailed power output each cycle
-hw_perf_file_name            hw_perf.csv # Hardware Performance Statistics file
-hw_perf_bench_name    hw_perf_bench_name # Kernel Name in Hardware Performance Statistics file
-power_simulation_mode                    0 # Switch performance counter input for power simulation (0=Sim, 1=HW, 2=HW-Sim Hybrid)
-dvfs_enabled                           1 # Turn on DVFS for power model
-aggregate_power_stats                    0 # Accumulate power across all kernels
-accelwattch_hybrid_perfsim_L1_RH                    0 # Get L1 Read Hits for Accelwattch-Hybrid from Accel-Sim
-accelwattch_hybrid_perfsim_L1_RM                    0 # Get L1 Read Misses for Accelwattch-Hybrid from Accel-Sim
-accelwattch_hybrid_perfsim_L1_WH                    0 # Get L1 Write Hits for Accelwattch-Hybrid from Accel-Sim
-accelwattch_hybrid_perfsim_L1_WM                    0 # Get L1 Write Misses for Accelwattch-Hybrid from Accel-Sim
-accelwattch_hybrid_perfsim_L2_RH                    0 # Get L2 Read Hits for Accelwattch-Hybrid from Accel-Sim
-accelwattch_hybrid_perfsim_L2_RM                    0 # Get L2 Read Misses for Accelwattch-Hybrid from Accel-Sim
-accelwattch_hybrid_perfsim_L2_WH                    0 # Get L2 Write Hits for Accelwattch-Hybrid from Accel-Sim
-accelwattch_hybrid_perfsim_L2_WM                    0 # Get L2 Write Misses for Accelwattch-Hybrid from Accel-Sim
-accelwattch_hybrid_perfsim_CC_ACC                    0 # Get Constant Cache Acesses for Accelwattch-Hybrid from Accel-Sim
-accelwattch_hybrid_perfsim_SHARED_ACC                    0 # Get Shared Memory Acesses for Accelwattch-Hybrid from Accel-Sim
-accelwattch_hybrid_perfsim_DRAM_RD                    0 # Get DRAM Reads for Accelwattch-Hybrid from Accel-Sim
-accelwattch_hybrid_perfsim_DRAM_WR                    0 # Get DRAM Writes for Accelwattch-Hybrid from Accel-Sim
-accelwattch_hybrid_perfsim_NOC                    0 # Get Interconnect Acesses for Accelwattch-Hybrid from Accel-Sim
-accelwattch_hybrid_perfsim_PIPE_DUTY                    0 # Get Pipeline Duty Cycle Acesses for Accelwattch-Hybrid from Accel-Sim
-accelwattch_hybrid_perfsim_NUM_SM_IDLE                    0 # Get Number of Idle SMs for Accelwattch-Hybrid from Accel-Sim
-accelwattch_hybrid_perfsim_CYCLES                    0 # Get Executed Cycles for Accelwattch-Hybrid from Accel-Sim
-accelwattch_hybrid_perfsim_VOLTAGE                    0 # Get Chip Voltage for Accelwattch-Hybrid from Accel-Sim
-power_trace_enabled                    0 # produce a file for the power trace (1=On, 0=Off)
-power_trace_zlevel                     0 # Compression level of the power trace output log (0=no comp, 9=highest)
-steady_power_levels_enabled                    0 # produce a file for the steady power levels (1=On, 0=Off)
-steady_state_definition                  8:4 # allowed deviation:number of samples
-gpgpu_max_cycle                        0 # terminates gpu simulation early (0 = no limit)
-gpgpu_max_insn                         0 # terminates gpu simulation early (0 = no limit)
-gpgpu_max_cta                          0 # terminates gpu simulation early (0 = no limit)
-gpgpu_max_completed_cta                    0 # terminates gpu simulation early (0 = no limit)
-gpgpu_runtime_stat                  1000 # display runtime statistics such as dram utilization {<freq>:<flag>}
-liveness_message_freq                    1 # Minimum number of seconds between simulation liveness messages (0 = always print)
-gpgpu_compute_capability_major                    7 # Major compute capability version number
-gpgpu_compute_capability_minor                    5 # Minor compute capability version number
-gpgpu_flush_l1_cache                    1 # Flush L1 cache at the end of each kernel call
-gpgpu_flush_l2_cache                    0 # Flush L2 cache at the end of each kernel call
-gpgpu_deadlock_detect                    1 # Stop the simulation at deadlock (1=on (default), 0=off)
-gpgpu_ptx_instruction_classification                    0 # if enabled will classify ptx instruction types per kernel (Max 255 kernels now)
-gpgpu_ptx_sim_mode                     0 # Select between Performance (default) or Functional simulation (1)
-gpgpu_clock_domains 1365:1365:1365:3500.5 # Clock Domain Frequencies in MhZ {<Core Clock>:<ICNT Clock>:<L2 Clock>:<DRAM Clock>}
-gpgpu_max_concurrent_kernel                  128 # maximum kernels that can run concurrently on GPU, set this value according to max resident grids for your compute capability
-gpgpu_cflog_interval                    0 # Interval between each snapshot in control flow logger
-visualizer_enabled                     0 # Turn on visualizer output (1=On, 0=Off)
-visualizer_outputfile                 NULL # Specifies the output log file for visualizer
-visualizer_zlevel                      6 # Compression level of the visualizer output log (0=no comp, 9=highest)
-gpgpu_stack_size_limit                 1024 # GPU thread stack size
-gpgpu_heap_size_limit              8388608 # GPU malloc heap size 
-gpgpu_runtime_sync_depth_limit                    2 # GPU device runtime synchronize depth
-gpgpu_runtime_pending_launch_count_limit                 2048 # GPU device runtime pending launch count
-trace_enabled                          0 # Turn on traces
-trace_components                    none # comma seperated list of traces to enable. Complete list found in trace_streams.tup. Default none
-trace_sampling_core                    0 # The core which is printed using CORE_DPRINTF. Default 0
-trace_sampling_memory_partition                   -1 # The memory partition which is printed using MEMPART_DPRINTF. Default -1 (i.e. all)
-enable_ptx_file_line_stats                    1 # Turn on PTX source line statistic profiling. (1 = On)
-ptx_line_stats_filename gpgpu_inst_stats.txt # Output file for PTX source line statistics.
-gpgpu_kernel_launch_latency                 5000 # Kernel launch latency in cycles. Default: 0
-gpgpu_cdp_enabled                      0 # Turn on CDP
-gpgpu_TB_launch_latency                    0 # thread block launch latency in cycles. Default: 0
-mem_runtime_stat                     100 # memory access runtime profiling sampling941b81fc23f2052087d1d5a6fb26e9d9  /home/pars/Documents/sim_5/bc_linear_base
Extracting PTX file and ptxas options    1: bc_linear_base.1.sm_75.ptx -arch=sm_75
 freq
-L1D_metrics                            0 # memory access runtime profiling for L1 data cache
-IPC_per_prof_interval                    0 # IPC per profiling interval
-instruction_monitor                    0 # Instruction monitor
-noncoal_metrics                        0 # memory access runtime profiling for shared memory
-L2_metrics                             0 # memory access runtime profiling for L2 cache
-DRAM_metrics                           0 # memory access runtime profiling for DRAM
-Shmem_metrics                          0 # memory access runtime profiling for noncoalesced accesses
-store_enable                           0 # Enable stores for memory profiling
-accumulate_stats                       0 # Accumulate stats for the memory profiling
-dump_enable                            0 # Process dump enable flag - (def = 0)
-flush_l1d                              0 # Enable flushings for L1D caches - (default = 0)
-flush_l2                               0 # Enable flushings for L2 caches - (default = 0)
-flush_dram                             0 # Enable flushings for DRAM - (default = 0)
-flush_noncoalesceds                    0 # Enable flushings for non coalesced accesses - (default = 0)
-flush_shmems                           0 # Enable flushings for shared memory accesses - (default = 0)
-error_percentage          21474836480001 # Error percentage for the flushes - (default = 1)
-dump_sampling_cycle       21474836485000 # Dump sampling frequency - (default = 5000)
-flush_acc_type                         2 # Flush access types
-monitor_sampling_cycle                 5000 # Monitoring sampling cycle - (default = 5000)
DRAM Timing Options:
nbk                                    16 # number of banks
CCD                                     4 # column to column delay
RRD                                    12 # minimal delay between activation of rows in different banks
RCD                                    24 # row to column delay
RAS                                    55 # time needed to activate row
RP                                     24 # time needed to precharge (deactivate) row
RC                                     78 # row cycle time
CDLR                                   10 # switching from write to read (changes tWTR)
WR                                     24 # last data-in to row precharge
CL                                     24 # CAS latency
WL                                      8 # Write latency
nbkgrp                                  4 # number of bank groups
CCDL                                    6 # column to column delay between accesses to different bank groups
RTPL                                    4 # read to precharge delay between accesses to different bank groups
Total number of memory sub partition = 24
addr_dec_mask[CHIP]  = 0000000000000000 	high:64 low:0
addr_dec_mask[BK]    = 0000000000007080 	high:15 low:7
addr_dec_mask[ROW]   = 000000000fff8000 	high:28 low:15
addr_dec_mask[COL]   = 0000000000000f7f 	high:12 low:0
addr_dec_mask[BURST] = 000000000000001f 	high:5 low:0
sub_partition_id_mask = 0000000000000080
GPGPU-Sim uArch: clock freqs: 1365000000.000000:1365000000.000000:1365000000.000000:3500500000.000000
GPGPU-Sim uArch: clock periods: 0.00000000073260073260:0.00000000073260073260:0.00000000073260073260:0.00000000028567347522
*** Initializing Memory Statistics ***
GPGPU-Sim uArch: performance model initialization complete.
self exe links to: /home/pars/Documents/sim_5/bc_linear_base
self exe links to: /home/pars/Documents/sim_5/bc_linear_base
11.0
GPGPU-Sim PTX: __cudaRegisterFatBinary, fat_cubin_handle = 1, filename=default
self exe links to: /home/pars/Documents/sim_5/bc_linear_base
Running md5sum using "md5sum /home/pars/Documents/sim_5/bc_linear_base "
self exe links to: /home/pars/Documents/sim_5/bc_linear_base
Extracting specific PTX file named bc_linear_base.1.sm_75.ptx 
GPGPU-Sim PTX: __cudaRegisterFunction _ZN3cub11EmptyKernelIvEEvv : hostFun 0x0x55e29e974376, fat_cubin_handle = 1
GPGPU-Sim PTX: Parsing bc_linear_base.1.sm_75.ptx
GPGPU-Sim PTX: allocating stack frame region for .param "__assertfail_param_0" from 0x0 to 0x8
GPGPU-Sim PTX: allocating stack frame region for .param "__assertfail_param_1" from 0x8 to 0x10
GPGPU-Sim PTX: allocating stack frame region for .param "__assertfail_param_2" from 0x10 to 0x14
GPGPU-Sim PTX: allocating stack frame region for .param "__assertfail_param_3" from 0x14 to 0x1c
GPGPU-Sim PTX: allocating stack frame region for .param "__assertfail_param_4" from 0x1c to 0x24
GPGPU-Sim PTX: allocating global region for "__unnamed_1" from 0x100 to 0x15d (global memory space)
GPGPU-Sim PTX: allocating global region for "_ZN45_INTERNAL_589e0b92_14_linear_base_cu_297024296thrust6system6detail10sequential3seqE" from 0x15d to 0x15e (global memory space)
GPGPU-Sim PTX: allocating global region for "_ZN45_INTERNAL_589e0b92_14_linear_base_cu_297024296thrust6system3cpp3parE" from 0x15e to 0x15f (global memory space)
GPGPU-Sim PTX: allocating global region for "_ZN45_INTERNAL_589e0b92_14_linear_base_cu_297024296thrust8cuda_cub3parE" from 0x15f to 0x160 (global memory space)
GPGPU-Sim PTX: allocating global region for "_ZN45_INTERNAL_589e0b92_14_linear_base_cu_297024296thrust12placeholders2_1E" from 0x160 to 0x161 (global memory space)
GPGPU-Sim PTX: allocating global region for "_ZN45_INTERNAL_589e0b92_14_linear_base_cu_297024296thrust12placeholders2_2E" from 0x161 to 0x162 (global memory space)
GPGPU-Sim PTX: allocating global region for "_ZN45_INTERNAL_589e0b92_14_linear_base_cu_297024296thrust12placeholders2_3E" from 0x162 to 0x163 (global memory space)
GPGPU-Sim PTX: allocating global region for "_ZN45_INTERNAL_589e0b92_14_linear_base_cu_297024296thrust12placeholders2_4E" from 0x163 to 0x164 (global memory space)
GPGPU-Sim PTX: allocating global region for "_ZN45_INTERNAL_589e0b92_14_linear_base_cu_297024296thrust12placeholders2_5E" from 0x164 to 0x165 (global memory space)
GPGPU-Sim PTX: allocating global region for "_ZN45_INTERNAL_589e0b92_14_linear_base_cu_297024296thrust12placeholders2_6E" from 0x165 to 0x166 (global memory space)
GPGPU-Sim PTX: allocating global region for "_ZN45_INTERNAL_589e0b92_14_linear_base_cu_297024296thrust12placeholders2_7E" from 0x166 to 0x167 (global memory space)
GPGPU-Sim PTX: allocating global region for "_ZN45_INTERNAL_589e0b92_14_linear_base_cu_297024296thrust12placeholders2_8E" from 0x167 to 0x168 (global memory space)
GPGPU-Sim PTX: allocating global region for "_ZN45_INTERNAL_589e0b92_14_linear_base_cu_297024296thrust12placeholders2_9E" from 0x168 to 0x169 (global memory space)
GPGPU-Sim PTX: allocating global region for "_ZN45_INTERNAL_589e0b92_14_linear_base_cu_297024296thrust12placeholders3_10E" from 0x169 to 0x16a (global memory space)
GPGPU-Sim PTX: allocating global region for "_ZN45_INTERNAL_589e0b92_14_linear_base_cu_297024296thrust3seqE" from 0x16a to 0x16b (global memory space)
GPGPU-Sim PTX: allocating global region for "_ZN45_INTERNAL_589e0b92_14_linear_base_cu_297024296thrust6deviceE" from 0x16b to 0x16c (global memory space)
GPGPU-Sim PTX: allocating global region for "$str" from 0x180 to 0x194 (global memory space)
GPGPU-Sim PTX: allocating global region for "$str$1" from 0x200 to 0x20f (global memory space)
GPGPU-Sim PTX: allocating shared region for "_ZN6thrust8cuda_cub4core5shmemE" from 0x0 to 0x0 (shared memory space)
GPGPU-Sim PTX: instruction assembly for function '_Z10initializeiPi'...   done.
GPGPU-Sim PTX: instruction assembly for function '_Z6insert9Worklist2iPiS0_'...   done.
GPGPU-Sim PTX: instruction assembly for function '_Z13push_frontier9Worklist2Pii'...   done.
GPGPU-Sim PTX: instruction assembly for function '_Z12bc_normalizeiPff'...   done.
GPGPU-Sim PTX: Warning -- ignoring pragma 'nounroll'
GPGPU-Sim PTX: allocating stack frame region for .param "param0" from 0x0 to 0x8
GPGPU-Sim PTX: allocating stack frame region for .param "param1" from 0x8 to 0x10
GPGPU-Sim PTX: allocating stack frame region for .param "param2" from 0x10 to 0x14
GPGPU-Sim PTX: allocating stack frame region for .param "param3" from 0x14 to 0x1c
GPGPU-Sim PTX: allocating stack frame region for .param "param4" from 0x1c to 0x24
GPGPU-Sim PTX: allocating stack frame region for .param "param0" from 0x24 to 0x2c
GPGPU-Sim PTX: allocating stack frame region for .param "param1" from 0x2c to 0x34
GPGPU-Sim PTX: allocating stack frame region for .param "param2" from 0x34 to 0x38
GPGPU-Sim PTX: allocating stack frame region for .param "param3" from 0x38 to 0x40
GPGPU-Sim PTX: allocating stack frame region for .param "param4" from 0x40 to 0x48
GPGPU-Sim PTX: allocating stack frame region for .param "param0" from 0x48 to 0x50
GPGPU-Sim PTX: allocating stack frame region for .param "param1" from 0x50 to 0x58
GPGPU-Sim PTX: allocating stack frame region for .param "param2" from 0x58 to 0x5c
GPGPU-Sim PTX: allocating stack frame region for .param "param3" from 0x5c to 0x64
GPGPU-Sim PTX: allocating stack frame region for .param "param4" from 0x64 to 0x6c
GPGPU-Sim PTX: allocating stack frame region for .param "param0" from 0x6c to 0x74
GPGPU-Sim PTX: allocating stack frame region for .param "param1" from 0x74 to 0x7c
GPGPU-Sim PTX: allocating stack frame region for .param "param2" from 0x7c to 0x80
GPGPU-Sim PTX: allocating stack frame region for .param "param3" from 0x80 to 0x88
GPGPU-Sim PTX: allocating stack frame region for .param "param4" from 0x88 to 0x90
GPGPU-Sim PTX: allocating stack frame region for .param "param0" from 0x90 to 0x98
GPGPU-Sim PTX: allocating stack frame region for .param "param1" from 0x98 to 0xa0
GPGPU-Sim PTX: allocating stack frame region for .param "param2" from 0xa0 to 0xa4
GPGPU-Sim PTX: allocating stack frame region for .param "param3" from 0xa4 to 0xac
GPGPU-Sim PTX: allocating stack frame region for .param "param4" from 0xac to 0xb4
GPGPU-Sim PTX: instruction assembly for function '_Z10bc_forwardPKmPKiPiS3_i9Worklist2S4_'...   done.
GPGPU-Sim PTX: Warning -- ignoring pragma 'nounroll'
GPGPU-Sim PTX: instruction assembly for function '_Z10bc_reverseiPKmPKiS2_S2_S2_iPfS3_'...   done.
GPGPU-Sim PTX: Warning -- ignoring pragma 'nounroll'
GPGPU-Sim PTX: Warning -- ignoring pragma 'nounroll'
GPGPU-Sim PTX: instruction assembly for function '_ZN6thrust8cuda_cub4core13_kernel_agentINS0_8__reduce11ReduceAgentINS_12zip_iteratorINS_5tupleIPfNS0_19counting_iterator_tIlEENS_9null_typeESA_SA_SA_SA_SA_SA_SA_EEEEPNS6_IflSA_SA_SA_SA_SA_SA_SA_SA_EESD_iNS0_9__extrema9arg_max_fIflNS_4lessIfEEEEEESC_SE_iSJ_EEvT0_T1_T2_T3_'...   done.
GPGPU-Sim PTX: Warning -- ignoring pragma 'nounroll'
GPGPU-Sim PTX: Warning -- ignoring pragma 'nounroll'
GPGPU-Sim PTX: instruction assembly for function '_ZN6thrust8cuda_cub4core13_kernel_agentINS0_8__reduce11ReduceAgentINS_12zip_iteratorINS_5tupleIPfNS0_19counting_iterator_tIlEENS_9null_typeESA_SA_SA_SA_SA_SA_SA_EEEEPNS6_IflSA_SA_SA_SA_SA_SA_SA_SA_EESD_iNS0_9__extrema9arg_max_fIflNS_4lessIfEEEEEESC_SE_iN3cub13GridEvenShareIiEENSL_9GridQueueIjEESJ_EEvT0_T1_T2_T3_T4_T5_'...   done.
GPGPU-Sim PTX: instruction assembly for function '_ZN6thrust8cuda_cub4core13_kernel_agentINS0_8__reduce10DrainAgentIiEEN3cub9GridQueueIjEEiEEvT0_T1_'...   done.
GPGPU-Sim PTX: Warning -- ignoring pragma 'nounroll'
GPGPU-Sim PTX: Warning -- ignoring pragma 'nounroll'
GPGPU-Sim PTX: instruction assembly for function '_ZN6thrust8cuda_cub4core13_kernel_agentINS0_8__reduce11ReduceAgentIPNS_5tupleIflNS_9null_typeES6_S6_S6_S6_S6_S6_S6_EES8_S7_iNS0_9__extrema9arg_max_fIflNS_4lessIfEEEEEES8_S8_iSD_EEvT0_T1_T2_T3_'...   done.
GPGPU-Sim PTX: Warning -- ignoring pragma 'nounroll'
GPGPU-Sim PTX: Warning -- ignoring pragma 'nounroll'
GPGPU-Sim PTX: instruction assembly for function '_ZN6thrust8cuda_cub4core13_kernel_agentINS0_8__reduce11ReduceAgentINS_12zip_iteratorINS_5tupleIPfNS0_19counting_iterator_tIlEENS_9null_typeESA_SA_SA_SA_SA_SA_SA_EEEEPNS6_IflSA_SA_SA_SA_SA_SA_SA_SA_EESD_lNS0_9__extrema9arg_max_fIflNS_4lessIfEEEEEESC_SE_lSJ_EEvT0_T1_T2_T3_'...   done.
GPGPU-Sim PTX: Warning -- ignoring pragma 'nounroll'
GPGPU-Sim PTX: Warning -- ignoring pragma 'nounroll'
GPGPU-Sim PTX: instruction assembly for function '_ZN6thrust8cuda_cub4core13_kernel_agentINS0_8__reduce11ReduceAgentINS_12zip_iteratorINS_5tupleIPfNS0_19counting_iterator_tIlEENS_9null_typeESA_SA_SA_SA_SA_SA_SA_EEEEPNS6_IflSA_SA_SA_SA_SA_SA_SA_SA_EESD_lNS0_9__extrema9arg_max_fIflNS_4lessIfEEEEEESC_SE_lN3cub13GridEvenShareIlEENSL_9GridQueueIyEESJ_EEvT0_T1_T2_T3_T4_T5_'...   done.
GPGPU-Sim PTX: instruction assembly for function '_ZN6thrust8cuda_cub4core13_kernel_agentINS0_8__reduce10DrainAgentIlEEN3cub9GridQueueIyEElEEvT0_T1_'...   done.
GPGPU-Sim PTX: Warning -- ignoring pragma 'nounroll'
GPGPU-Sim PTX: Warning -- ignoring pragma 'nounroll'
GPGPU-Sim PTX: instruction assembly for function '_ZN6thrust8cuda_cub4core13_kernel_agentINS0_8__reduce11ReduceAgentIPNS_5tupleIflNS_9null_typeES6_S6_S6_S6_S6_S6_S6_EES8_S7_lNS0_9__extrema9arg_max_fIflNS_4lessIfEEEEEES8_S8_iSD_EEvT0_T1_T2_T3_'...   done.
GPGPU-Sim PTX: instruction assembly for function '_ZN6thrust8cuda_cub4core13_kernel_agentINS0_14__parallel_for16ParallelForAgentINS0_10for_each_fINS_7pointerINS_5tupleIflNS_9null_typeES8_S8_S8_S8_S8_S8_S8_EENS0_5par_tENS_11use_defaultESB_EENS_6detail16wrapped_functionINSD_23allocator_traits_detail5gozerEvEEEElEESI_lEEvT0_T1_'...   done.
GPGPU-Sim PTX: instruction assembly for function '_ZN6thrust8cuda_cub4core13_kernel_agentINS0_14__parallel_for16ParallelForAgentINS0_20__uninitialized_copy7functorIPNS_5tupleIflNS_9null_typeES8_S8_S8_S8_S8_S8_S8_EENS_7pointerIS9_NS0_5par_tENS_11use_defaultESD_EEEElEESF_lEEvT0_T1_'...   done.
GPGPU-Sim PTX: instruction assembly for function '_ZN6thrust8cuda_cub4core13_kernel_agentINS0_14__parallel_for16ParallelForAgentINS0_11__transform17unary_transform_fIPNS_5tupleIflNS_9null_typeES8_S8_S8_S8_S8_S8_S8_EESA_NS5_14no_stencil_tagENS_8identityIS9_EENS5_21always_true_predicateEEElEESF_lEEvT0_T1_'...   done.
GPGPU-Sim PTX: instruction assembly for function '_ZN3cub11EmptyKernelIvEEvv'...   done.
GPGPU-Sim PTX: finished parsing EMBEDDED .ptx file bc_linear_base.1.sm_75.ptx
GPGPU-Sim PTX: loading globals with explicit initializers... 
GPGPU-Sim PTX:     initializing '__unnamed_1' ...  wrote 93 bytes
GPGPU-Sim PTX:     initializing '$str' ...  wrote 20 bytes
GPGPU-Sim PTX:     initializing '$str$1' ...  wrote 15 bytes
GPGPU-Sim PTX: finished loading globals (128 bytes total).
GPGPU-Sim PTX: loading constants with explicit initializers...  done.
GPGPU-Sim PTX: Loading PTXInfo from bc_linear_base.1.sm_75.ptx
GPGPU-Sim PTX: Kernel '_ZN3cub11EmptyKernelIvEEvv' : regs=4, lmem=0, smem=0, cmem=352
GPGPU-Sim PTX: Kernel '_ZN6thrust8cuda_cub4core13_kernel_agentINS0_14__parallel_for16ParallelForAgentINS0_11__transform17unary_transform_fIPNS_5tupleIflNS_9null_typeES8_S8_S8_S8_S8_S8_S8_EESA_NS5_14no_stencil_tagENS_8identityIS9_EENS5_21always_true_predicateEEElEESF_lEEvT0_T1_' : regs=14, lmem=0, smem=0, cmem=384
GPGPU-Sim PTX: Kernel '_ZN6thrust8cuda_cub4core13_kernel_agentINS0_14__parallel_for16ParallelForAgentINS0_20__uninitialized_copy7functorIPNS_5tupleIflNS_9null_typeES8_S8_S8_S8_S8_S8_S8_EENS_7pointerIS9_NS0_5par_tENS_11use_defaultESD_EEEElEESF_lEEvT0_T1_' : regs=16, lmem=0, smem=0, cmem=376
GPGPU-Sim PTX: Kernel '_ZN6thrust8cuda_cub4core13_kernel_agentINS0_14__parallel_for16ParallelForAgentINS0_10for_each_fINS_7pointerINS_5tupleIflNS_9null_typeES8_S8_S8_S8_S8_S8_S8_EENS0_5par_tENS_11use_defaultESB_EENS_6detail16wrapped_functionINSD_23allocator_traits_detail5gozerEvEEEElEESI_lEEvT0_T1_' : regs=4, lmem=0, smem=0, cmem=376
GPGPU-Sim PTX: Kernel '_ZN6thrust8cuda_cub4core13_kernel_agentINS0_8__reduce11ReduceAgentIPNS_5tupleIflNS_9null_typeES6_S6_S6_S6_S6_S6_S6_EES8_S7_lNS0_9__extrema9arg_max_fIflNS_4lessIfEEEEEES8_S8_iSD_EEvT0_T1_T2_T3_' : regs=34, lmem=0, smem=0, cmem=373
GPGPU-Sim PTX: Kernel '_ZN6thrust8cuda_cub4core13_kernel_agentINS0_8__reduce10DrainAgentIlEEN3cub9GridQueueIyEElEEvT0_T1_' : regs=6, lmem=0, smem=0, cmem=368
GPGPU-Sim PTX: Kernel '_ZN6thrust8cuda_cub4core13_kernel_agentINS0_8__reduce11ReduceAgentINS_12zip_iteratorINS_5tupleIPfNS0_19counting_iterator_tIlEENS_9null_typeESA_SA_SA_SA_SA_SA_SA_EEEEPNS6_IflSA_SA_SA_SA_SA_SA_SA_SA_EESD_lNS0_9__extrema9arg_max_fIflNS_4lessIfEEEEEESC_SE_lN3cub13GridEvenShareIlEENSL_9GridQueueIyEESJ_EEvT0_T1_T2_T3_T4_T5_' : regs=32, lmem=0, smem=0, cmem=465
GPGPU-Sim PTX: Kernel '_ZN6thrust8cuda_cub4core13_kernel_agentINS0_8__reduce11ReduceAgentINS_12zip_iteratorINS_5tupleIPfNS0_19counting_iterator_tIlEENS_9null_typeESA_SA_SA_SA_SA_SA_SA_EEEEPNS6_IflSA_SA_SA_SA_SA_SA_SA_SA_EESD_lNS0_9__extrema9arg_max_fIflNS_4lessIfEEEEEESC_SE_lSJ_EEvT0_T1_T2_T3_' : regs=32, lmem=0, smem=0, cmem=385
GPGPU-Sim PTX: Kernel '_ZN6thrust8cuda_cub4core13_kernel_agentINS0_8__reduce11ReduceAgentIPNS_5tupleIflNS_9null_typeES6_S6_S6_S6_S6_S6_S6_EES8_S7_iNS0_9__extrema9arg_max_fIflNS_4lessIfEEEEEES8_S8_iSD_EEvT0_T1_T2_T3_' : regs=34, lmem=0, smem=0, cmem=373
GPGPU-Sim PTX: Kernel '_ZN6thrust8cuda_cub4core13_kernel_agentINS0_8__reduce10DrainAgentIiEEN3cub9GridQueueIjEEiEEvT0_T1_' : regs=4, lmem=0, smem=0, cmem=364
GPGPU-Sim PTX: Kernel '_ZN6thrust8cuda_cub4core13_kernel_agentINS0_8__reduce11ReduceAgentINS_12zip_iteratorINS_5tupleIPfNS0_19counting_iterator_tIlEENS_9null_typeESA_SA_SA_SA_SA_SA_SA_EEEEPNS6_IflSA_SA_SA_SA_SA_SA_SA_SA_EESD_iNS0_9__extrema9arg_max_fIflNS_4lessIfEEEEEESC_SE_iN3cub13GridEvenShareIiEENSL_9GridQueueIjEESJ_EEvT0_T1_T2_T3_T4_T5_' : regs=32, lmem=0, smem=0, cmem=433
GPGPU-Sim PTX: Kernel '_ZN6thrust8cuda_cub4core13_kernel_agentINS0_8__reduce11ReduceAgentINS_12zip_iteratorINS_5tupleIPfNS0_19counting_iterator_tIlEENS_9null_typeESA_SA_SA_SA_SA_SA_SA_EEEEPNS6_IflSA_SA_SA_SA_SA_SA_SA_SA_EESD_iNS0_9__extrema9arg_max_fIflNS_4lessIfEEEEEESC_SE_iSJ_EEvT0_T1_T2_T3_' : regs=32, lmem=0, smem=0, cmem=381
GPGPU-Sim PTX: Kernel '_Z10bc_reverseiPKmPKiS2_S2_S2_iPfS3_' : regs=27, lmem=0, smem=0, cmem=424
GPGPU-Sim PTX: Kernel '_Z10bc_forwardPKmPKiPiS3_i9Worklist2S4_' : regs=32, lmem=0, smem=0, cmem=456
GPGPU-Sim PTX: Kernel '_Z12bc_normalizeiPff' : regs=16, lmem=0, smem=0, cmem=372
GPGPU-Sim PTX: Kernel '_Z13push_frontier9Worklist2Pii' : regs=8, lmem=0, smem=0, cmem=396
GPGPU-Sim PTX: Kernel '_Z6insert9Worklist2iPiS0_' : regs=15, lmem=0, smem=0, cmem=408
GPGPU-Sim PTX: Kernel '_Z10initializeiPi' : regs=8, lmem=0, smem=0, cmem=368
GPGPU-Sim PTX: __cudaRegisterFunction _ZN6thrust8cuda_cub4core13_kernel_agentINS0_14__parallel_for16ParallelForAgentINS0_11__transform17unary_transform_fIPNS_5tupleIflNS_9null_typeES8_S8_S8_S8_S8_S8_S8_EESA_NS5_14no_stencil_tagENS_8identityIS9_EENS5_21always_true_predicateEEElEESF_lEEvT0_T1_ : hostFun 0x0x55e29e97485f, fat_cubin_handle = 1
GPGPU-Sim PTX: __cudaRegisterFunction _ZN6thrust8cuda_cub4core13_kernel_agentINS0_14__parallel_for16ParallelForAgentINS0_20__uninitialized_copy7functorIPNS_5tupleIflNS_9null_typeES8_S8_S8_S8_S8_S8_S8_EENS_7pointerIS9_NS0_5par_tENS_11use_defaultESD_EEEElEESF_lEEvT0_T1_ : hostFun 0x0x55e29e974823, fat_cubin_handle = 1
GPGPU-Sim PTX: __cudaRegisterFunction _ZN6thrust8cuda_cub4core13_kernel_agentINS0_14__parallel_for16ParallelForAgentINS0_10for_each_fINS_7pointerINS_5tupleIflNS_9null_typeES8_S8_S8_S8_S8_S8_S8_EENS0_5par_tENS_11use_defaultESB_EENS_6detail16wrapped_functionINSD_23allocator_traits_detail5gozerEvEEEElEESI_lEEvT0_T1_ : hostFun 0x0x55e29e9747f6, fat_cubin_handle = 1
GPGPU-Sim PTX: __cudaRegisterFunction _ZN6thrust8cuda_cub4core13_kernel_agentINS0_8__reduce11ReduceAgentIPNS_5tupleIflNS_9null_typeES6_S6_S6_S6_S6_S6_S6_EES8_S7_lNS0_9__extrema9arg_max_fIflNS_4lessIfEEEEEES8_S8_iSD_EEvT0_T1_T2_T3_ : hostFun 0x0x55e29e9747c8, fat_cubin_handle = 1
GPGPU-Sim PTX: __cudaRegisterFunction _ZN6thrust8cuda_cub4core13_kernel_agentINS0_8__reduce10DrainAgentIlEEN3cub9GridQueueIyEElEEvT0_T1_ : hostFun 0x0x55e29e9747a2, fat_cubin_handle = 1
GPGPU-Sim PTX: __cudaRegisterFunction _ZN6thrust8cuda_cub4core13_kernel_agentINS0_8__reduce11ReduceAgentINS_12zip_iteratorINS_5tupleIPfNS0_19counting_iterator_tIlEENS_9null_typeESA_SA_SA_SA_SA_SA_SA_EEEEPNS6_IflSA_SA_SA_SA_SA_SA_SA_SA_EESD_lNS0_9__extrema9arg_max_fIflNS_4lessIfEEEEEESC_SE_lN3cub13GridEvenShareIlEENSL_9GridQueueIyEESJ_EEvT0_T1_T2_T3_T4_T5_ : hostFun 0x0x55e29e97474e, fat_cubin_handle = 1
GPGPU-Sim PTX: __cudaRegisterFunction _ZN6thrust8cuda_cub4core13_kernel_agentINS0_8__reduce11ReduceAgentINS_12zip_iteratorINS_5tupleIPfNS0_19counting_iterator_tIlEENS_9null_typeESA_SA_SA_SA_SA_SA_SA_EEEEPNS6_IflSA_SA_SA_SA_SA_SA_SA_SA_EESD_lNS0_9__extrema9arg_max_fIflNS_4lessIfEEEEEESC_SE_lSJ_EEvT0_T1_T2_T3_ : hostFun 0x0x55e29e97470c, fat_cubin_handle = 1
GPGPU-Sim PTX: __cudaRegisterFunction _ZN6thrust8cuda_cub4core13_kernel_agentINS0_8__reduce11ReduceAgentIPNS_5tupleIflNS_9null_typeES6_S6_S6_S6_S6_S6_S6_EES8_S7_iNS0_9__extrema9arg_max_fIflNS_4lessIfEEEEEES8_S8_iSD_EEvT0_T1_T2_T3_ : hostFun 0x0x55e29e9746de, fat_cubin_handle = 1
GPGPU-Sim PTX: __cudaRegisterFunction _ZN6thrust8cuda_cub4core13_kernel_agentINS0_8__reduce10DrainAgentIiEEN3cub9GridQueueIjEEiEEvT0_T1_ : hostFun 0x0x55e29e9746b9, fat_cubin_handle = 1
GPGPU-Sim PTX: __cudaRegisterFunction _ZN6thrust8cuda_cub4core13_kernel_agentINS0_8__reduce11ReduceAgentINS_12zip_iteratorINS_5tupleIPfNS0_19counting_iterator_tIlEENS_9null_typeESA_SA_SA_SA_SA_SA_SA_EEEEPNS6_IflSA_SA_SA_SA_SA_SA_SA_SA_EESD_iNS0_9__extrema9arg_max_fIflNS_4lessIfEEEEEESC_SE_iN3cub13GridEvenShareIiEENSL_9GridQueueIjEESJ_EEvT0_T1_T2_T3_T4_T5_ : hostFun 0x0x55e29e974666, fat_cubin_handle = 1
GPGPU-Sim PTX: __cudaRegisterFunction _ZN6thrust8cuda_cub4core13_kernel_agentINS0_8__reduce11ReduceAgentINS_12zip_iteratorINS_5tupleIPfNS0_19counting_iterator_tIlEENS_9null_typeESA_SA_SA_SA_SA_SA_SA_EEEEPNS6_IflSA_SA_SA_SA_SA_SA_SA_SA_EESD_iNS0_9__extrema9arg_max_fIflNS_4lessIfEEEEEESC_SE_iSJ_EEvT0_T1_T2_T3_ : hostFun 0x0x55e29e974625, fat_cubin_handle = 1
GPGPU-Sim PTX: __cudaRegisterFunction _Z10bc_reverseiPKmPKiS2_S2_S2_iPfS3_ : hostFun 0x0x55e29e97053a, fat_cubin_handle = 1
GPGPU-Sim PTX: __cudaRegisterFunction _Z10bc_forwardPKmPKiPiS3_i9Worklist2S4_ : hostFun 0x0x55e29e9702d6, fat_cubin_handle = 1
GPGPU-Sim PTX: __cudaRegisterFunction _Z12bc_normalizeiPff : hostFun 0x0x55e29e9700b9, fat_cubin_handle = 1
GPGPU-Sim PTX: __cudaRegisterFunction _Z13push_frontier9Worklist2Pii : hostFun 0x0x55e29e96ff36, fat_cubin_handle = 1
GPGPU-Sim PTX: __cudaRegisterFunction _Z6insert9Worklist2iPiS0_ : hostFun 0x0x55e29e96fda4, fat_cubin_handle = 1
GPGPU-Sim PTX: __cudaRegisterFunction _Z10initializeiPi : hostFun 0x0x55e29e96fc0a, fat_cubin_handle = 1
GPGPU-Sim PTX: __cudaRegisterVar: hostVar = 0x55e29e98a74f; deviceAddress = _ZN45_INTERNAL_589e0b92_14_linear_base_cu_297024296thrust6system6detail10sequential3seqE; deviceName = _ZN45_INTERNAL_589e0b92_14_linear_base_cu_297024296thrust6system6detail10sequential3seqE
GPGPU-Sim PTX: __cudaRegisterVar: Registering const memory space of 1 bytes
GPGPU-Sim PTX registering global _ZN45_INTERNAL_589e0b92_14_linear_base_cu_297024296thrust6system6detail10sequential3seqE hostVar to name mapping
GPGPU-Sim PTX: __cudaRegisterVar: hostVar = 0x55e29e98a755; deviceAddress = _ZN45_INTERNAL_589e0b92_14_linear_base_cu_297024296thrust6system3cpp3parE; deviceName = _ZN45_INTERNAL_589e0b92_14_linear_base_cu_297024296thrust6system3cpp3parE
GPGPU-Sim PTX: __cudaRegisterVar: Registering const memory space of 1 bytes
GPGPU-Sim PTX registering global _ZN45_INTERNAL_589e0b92_14_linear_base_cu_297024296thrust6system3cpp3parE hostVar to name mapping
GPGPU-Sim PTX: __cudaRegisterVar: hostVar = 0x55e29e98a8dc; deviceAddress = _ZN45_INTERNAL_589e0b92_14_linear_base_cu_297024296thrust8cuda_cub3parE; deviceName = _ZN45_INTERNAL_589e0b92_14_linear_base_cu_297024296thrust8cuda_cub3parE
GPGPU-Sim PTX: __cudaRegisterVar: Registering const memory space of 1 bytes
GPGPU-Sim PTX registering global _ZN45_INTERNAL_589e0b92_14_linear_base_cu_297024296thrust8cuda_cub3parE hostVar to name mapping
GPGPU-Sim PTX: __cudaRegisterVar: hostVar = 0x55e29e98a756; deviceAddress = _ZN45_INTERNAL_589e0b92_14_linear_base_cu_297024296thrust12placeholders2_1E; deviceName = _ZN45_INTERNAL_589e0b92_14_linear_base_cu_297024296thrust12placeholders2_1E
GPGPU-Sim PTX: __cudaRegisterVar: Registering const memory space of 1 bytes
GPGPU-Sim PTX registering global _ZN45_INTERNAL_589e0b92_14_linear_base_cu_297024296thrust12placeholders2_1E hostVar to name mapping
GPGPU-Sim PTX: __cudaRegisterVar: hostVar = 0x55e29e98a757; deviceAddress = _ZN45_INTERNAL_589e0b92_14_linear_base_cu_297024296thrust12placeholders2_2E; deviceName = _ZN45_INTERNAL_589e0b92_14_linear_base_cu_297024296thrust12placeholders2_2E
GPGPU-Sim PTX: __cudaRegisterVar: Registering const memory space of 1 bytes
GPGPU-Sim PTX registering global _ZN45_INTERNAL_589e0b92_14_linear_base_cu_297024296thrust12placeholders2_2E hostVar to name mapping
GPGPU-Sim PTX: __cudaRegisterVar: hostVar = 0x55e29e98a758; deviceAddress = _ZN45_INTERNAL_589e0b92_14_linear_base_cu_297024296thrust12placeholders2_3E; deviceName = _ZN45_INTERNAL_589e0b92_14_linear_base_cu_297024296thrust12placeholders2_3E
GPGPU-Sim PTX: __cudaRegisterVar: Registering const memory space of 1 bytes
GPGPU-Sim PTX registering global _ZN45_INTERNAL_589e0b92_14_linear_base_cu_297024296thrust12placeholders2_3E hostVar to name mapping
GPGPU-Sim PTX: __cudaRegisterVar: hostVar = 0x55e29e98a759; deviceAddress = _ZN45_INTERNAL_589e0b92_14_linear_base_cu_297024296thrust12placeholders2_4E; deviceName = _ZN45_INTERNAL_589e0b92_14_linear_base_cu_297024296thrust12placeholders2_4E
GPGPU-Sim PTX: __cudaRegisterVar: Registering const memory space of 1 bytes
GPGPU-Sim PTX registering global _ZN45_INTERNAL_589e0b92_14_linear_base_cu_297024296thrust12placeholders2_4E hostVar to name mapping
GPGPU-Sim PTX: __cudaRegisterVar: hostVar = 0x55e29e98a75a; deviceAddress = _ZN45_INTERNAL_589e0b92_14_linear_base_cu_297024296thrust12placeholders2_5E; deviceName = _ZN45_INTERNAL_589e0b92_14_linear_base_cu_297024296thrust12placeholders2_5E
GPGPU-Sim PTX: __cudaRegisterVar: Registering const memory space of 1 bytes
GPGPU-Sim PTX registering global _ZN45_INTERNAL_589e0b92_14_linear_base_cu_297024296thrust12placeholders2_5E hostVar to name mapping
GPGPU-Sim PTX: __cudaRegisterVar: hostVar = 0x55e29e98a75b; deviceAddress = _ZN45_INTERNAL_589e0b92_14_linear_base_cu_297024296thrust12placeholders2_6E; deviceName = _ZN45_INTERNAL_589e0b92_14_linear_base_cu_297024296thrust12placeholders2_6E
GPGPU-Sim PTX: __cudaRegisterVar: Registering const memory space of 1 bytes
GPGPU-Sim PTX registering global _ZN45_INTERNAL_589e0b92_14_linear_base_cu_297024296thrust12placeholders2_6E hostVar to name mapping
GPGPU-Sim PTX: __cudaRegisterVar: hostVar = 0x55e29e98a75c; deviceAddress = _ZN45_INTERNAL_589e0b92_14_linear_base_cu_297024296thrust12placeholders2_7E; deviceName = _ZN45_INTERNAL_589e0b92_14_linear_base_cu_297024296thrust12placeholders2_7E
GPGPU-Sim PTX: __cudaRegisterVar: Registering const memory space of 1 bytes
GPGPU-Sim PTX registering global _ZN45_INTERNAL_589e0b92_14_linear_base_cu_297024296thrust12placeholders2_7E hostVar to name mapping
GPGPU-Sim PTX: __cudaRegisterVar: hostVar = 0x55e29e98a75d; deviceAddress = _ZN45_INTERNAL_589e0b92_14_linear_base_cu_297024296thrust12placeholders2_8E; deviceName = _ZN45_INTERNAL_589e0b92_14_linear_base_cu_297024296thrust12placeholders2_8E
GPGPU-Sim PTX: __cudaRegisterVar: Registering const memory space of 1 bytes
GPGPU-Sim PTX registering global _ZN45_INTERNAL_589e0b92_14_linear_base_cu_297024296thrust12placeholders2_8E hostVar to name mapping
GPGPU-Sim PTX: __cudaRegisterVar: hostVar = 0x55e29e98a75e; deviceAddress = _ZN45_INTERNAL_589e0b92_14_linear_base_cu_297024296thrust12placeholders2_9E; deviceName = _ZN45_INTERNAL_589e0b92_14_linear_base_cu_297024296thrust12placeholders2_9E
GPGPU-Sim PTX: __cudaRegisterVar: Registering const memory space of 1 bytes
GPGPU-Sim PTX registering global _ZN45_INTERNAL_589e0b92_14_linear_base_cu_297024296thrust12placeholders2_9E hostVar to name mapping
GPGPU-Sim PTX: __cudaRegisterVar: hostVar = 0x55e29e98a75f; deviceAddress = _ZN45_INTERNAL_589e0b92_14_linear_base_cu_297024296thrust12placeholders3_10E; deviceName = _ZN45_INTERNAL_589e0b92_14_linear_base_cu_297024296thrust12placeholders3_10E
GPGPU-Sim PTX: __cudaRegisterVar: Registering const memory space of 1 bytes
GPGPU-Sim PTX registering global _ZN45_INTERNAL_589e0b92_14_linear_base_cu_297024296thrust12placeholders3_10E hostVar to name mapping
GPGPU-Sim PTX: __cudaRegisterVar: hostVar = 0x55e29e98a754; deviceAddress = _ZN45_INTERNAL_589e0b92_14_linear_base_cu_297024296thrust3seqE; deviceName = _ZN45_INTERNAL_589e0b92_14_linear_base_cu_297024296thrust3seqE
GPGPU-Sim PTX: __cudaRegisterVar: Registering const memory space of 1 bytes
GPGPU-Sim PTX registering global _ZN45_INTERNAL_589e0b92_14_linear_base_cu_297024296thrust3seqE hostVar to name mapping
GPGPU-Sim PTX: __cudaRegisterVar: hostVar = 0x55e29e98a96a; deviceAddress = _ZN45_INTERNAL_589e0b92_14_linear_base_cu_297024296thrust6deviceE; deviceName = _ZN45_INTERNAL_589e0b92_14_linear_base_cu_297024296thrust6deviceE
GPGPU-Sim PTX: __cudaRegisterVar: Registering const memory space of 1 bytes
GPGPU-Sim PTX registering global _ZN45_INTERNAL_589e0b92_14_linear_base_cu_297024296thrust6deviceE hostVar to name mapping
Betweenness Centrality by Xuhao Chen
Reading (.mtx) input file ../CudaBenchmarks/gardenia/datasets/germany_osm.mtx
Removing redundent edges... 0 redundent edges are removed
|V| 11548845 |E| 12369181
GPGPU-Sim PTX: Setting up arguments for 4 bytes starting at 0x7fff0e2d2ebc..
GPGPU-Sim PTX: Setting up arguments for 8 bytes starting at 0x7fff0e2d2eb0..

GPGPU-Sim PTX: cudaLaunch for 0x0x55e29e96fc0a (mode=performance simulation) on stream 0
GPGPU-Sim PTX: finding reconvergence points for '_Z10initializeiPi'...
GPGPU-Sim PTX: Finding dominators for '_Z10initializeiPi'...
GPGPU-Sim PTX: Finding immediate dominators for '_Z10initializeiPi'...
GPGPU-Sim PTX: Finding postdominators for '_Z10initializeiPi'...
GPGPU-Sim PTX: Finding immediate postdominators for '_Z10initializeiPi'...
GPGPU-Sim PTX: pre-decoding instructions for '_Z10initializeiPi'...
GPGPU-Sim PTX: reconvergence points for _Z10initializeiPi...
GPGPU-Sim PTX:  1 (potential) branch divergence @  PC=0x038 (bc_linear_base.1.sm_75.ptx:60) @%p1 bra $L__BB0_2;

GPGPU-Sim PTX:    immediate post dominator      @  PC=0x068 (bc_linear_base.1.sm_75.ptx:69) ret;

GPGPU-Sim PTX: ... end of reconvergence points for _Z10initializeiPi
GPGPU-Sim PTX: ... done pre-decoding instructions for '_Z10initializeiPi'.
GPGPU-Sim PTX: pushing kernel '_Z10initializeiPi' to stream 0, gridDim= (45113,1,1) blockDim = (256,1,1) 
GPGPU-Sim uArch: Shader 0 bind to kernel 1 '_Z10initializeiPi'
GPGPU-Sim uArch: CTA/core = 4, limited by: threads
GPGPU-Sim: Reconfigure L1 cache to 64KB
GPGPU-Sim uArch: Shader 1 bind to kernel 1 '_Z10initializeiPi'
GPGPU-Sim uArch: Shader 2 bind to kernel 1 '_Z10initializeiPi'
GPGPU-Sim uArch: Shader 3 bind to kernel 1 '_Z10initializeiPi'
GPGPU-Sim uArch: Shader 4 bind to kernel 1 '_Z10initializeiPi'
GPGPU-Sim uArch: Shader 5 bind to kernel 1 '_Z10initializeiPi'
GPGPU-Sim uArch: Shader 6 bind to kernel 1 '_Z10initializeiPi'
GPGPU-Sim uArch: Shader 7 bind to kernel 1 '_Z10initializeiPi'
GPGPU-Sim uArch: Shader 8 bind to kernel 1 '_Z10initializeiPi'
GPGPU-Sim uArch: Shader 9 bind to kernel 1 '_Z10initializeiPi'
GPGPU-Sim uArch: Shader 10 bind to kernel 1 '_Z10initializeiPi'
GPGPU-Sim uArch: Shader 11 bind to kernel 1 '_Z10initializeiPi'
GPGPU-Sim uArch: Shader 12 bind to kernel 1 '_Z10initializeiPi'
GPGPU-Sim uArch: Shader 13 bind to kernel 1 '_Z10initializeiPi'
GPGPU-Sim uArch: Shader 14 bind to kernel 1 '_Z10initializeiPi'
GPGPU-Sim uArch: Shader 15 bind to kernel 1 '_Z10initializeiPi'
GPGPU-Sim uArch: Shader 16 bind to kernel 1 '_Z10initializeiPi'
GPGPU-Sim uArch: Shader 17 bind to kernel 1 '_Z10initializeiPi'
GPGPU-Sim uArch: Shader 18 bind to kernel 1 '_Z10initializeiPi'
GPGPU-Sim uArch: Shader 19 bind to kernel 1 '_Z10initializeiPi'
GPGPU-Sim uArch: Shader 20 bind to kernel 1 '_Z10initializeiPi'
GPGPU-Sim uArch: Shader 21 bind to kernel 1 '_Z10initializeiPi'
GPGPU-Sim uArch: Shader 22 bind to kernel 1 '_Z10initializeiPi'
GPGPU-Sim uArch: Shader 23 bind to kernel 1 '_Z10initializeiPi'
GPGPU-Sim uArch: Shader 24 bind to kernel 1 '_Z10initializeiPi'
GPGPU-Sim uArch: Shader 25 bind to kernel 1 '_Z10initializeiPi'
GPGPU-Sim uArch: Shader 26 bind to kernel 1 '_Z10initializeiPi'
GPGPU-Sim uArch: Shader 27 bind to kernel 1 '_Z10initializeiPi'
GPGPU-Sim uArch: Shader 28 bind to kernel 1 '_Z10initializeiPi'
GPGPU-Sim uArch: Shader 29 bind to kernel 1 '_Z10initializeiPi'
Destroy streams for kernel 1: size 0
kernel_name = _Z10initializeiPi 
kernel_launch_uid = 1 
gpu_sim_cycle = 189893
gpu_sim_insn = 150135732
gpu_ipc =     790.6333
gpu_tot_sim_cycle = 189893
gpu_tot_sim_insn = 150135732
gpu_tot_ipc =     790.6333
gpu_tot_issued_cta = 45113
gpu_occupancy = 83.2208% 
gpu_tot_occupancy = 83.2208% 
max_total_param_size = 0
gpu_stall_dramfull = 76121
gpu_stall_icnt2sh    = 0
partiton_level_parallism =       7.6022
partiton_level_parallism_total  =       7.6022
partiton_level_parallism_util =       7.8750
partiton_level_parallism_util_total  =       7.8750
L2_BW  =     332.0644 GB/Sec
L2_BW_total  =     332.0644 GB/Sec
gpu_total_sim_rate=72529

========= Core cache stats =========
L1I_cache:
	L1I_total_cache_accesses = 0
	L1I_total_cache_misses = 0
	L1I_total_cache_pending_hits = 0
	L1I_total_cache_reservation_fails = 0
L1D_cache:
	L1D_cache_core[0]: Access = 47968, Miss = 47968, Miss_rate = 1.000, Pending_hits = 0, Reservation_fails = 29371
	L1D_cache_core[1]: Access = 48224, Miss = 48224, Miss_rate = 1.000, Pending_hits = 0, Reservation_fails = 29224
	L1D_cache_core[2]: Access = 48160, Miss = 48160, Miss_rate = 1.000, Pending_hits = 0, Reservation_fails = 28318
	L1D_cache_core[3]: Access = 47584, Miss = 47584, Miss_rate = 1.000, Pending_hits = 0, Reservation_fails = 29614
	L1D_cache_core[4]: Access = 48000, Miss = 48000, Miss_rate = 1.000, Pending_hits = 0, Reservation_fails = 29238
	L1D_cache_core[5]: Access = 47904, Miss = 47904, Miss_rate = 1.000, Pending_hits = 0, Reservation_fails = 28854
	L1D_cache_core[6]: Access = 48224, Miss = 48224, Miss_rate = 1.000, Pending_hits = 0, Reservation_fails = 29027
	L1D_cache_core[7]: Access = 48672, Miss = 48672, Miss_rate = 1.000, Pending_hits = 0, Reservation_fails = 27824
	L1D_cache_core[8]: Access = 48544, Miss = 48544, Miss_rate = 1.000, Pending_hits = 0, Reservation_fails = 28087
	L1D_cache_core[9]: Access = 48096, Miss = 48096, Miss_rate = 1.000, Pending_hits = 0, Reservation_fails = 28816
	L1D_cache_core[10]: Access = 47968, Miss = 47968, Miss_rate = 1.000, Pending_hits = 0, Reservation_fails = 28463
	L1D_cache_core[11]: Access = 47840, Miss = 47840, Miss_rate = 1.000, Pending_hits = 0, Reservation_fails = 29048
	L1D_cache_core[12]: Access = 47584, Miss = 47584, Miss_rate = 1.000, Pending_hits = 0, Reservation_fails = 29525
	L1D_cache_core[13]: Access = 47712, Miss = 47712, Miss_rate = 1.000, Pending_hits = 0, Reservation_fails = 29000
	L1D_cache_core[14]: Access = 47904, Miss = 47904, Miss_rate = 1.000, Pending_hits = 0, Reservation_fails = 28617
	L1D_cache_core[15]: Access = 48256, Miss = 48256, Miss_rate = 1.000, Pending_hits = 0, Reservation_fails = 28726
	L1D_cache_core[16]: Access = 47904, Miss = 47904, Miss_rate = 1.000, Pending_hits = 0, Reservation_fails = 29829
	L1D_cache_core[17]: Access = 48096, Miss = 48096, Miss_rate = 1.000, Pending_hits = 0, Reservation_fails = 28559
	L1D_cache_core[18]: Access = 48576, Miss = 48576, Miss_rate = 1.000, Pending_hits = 0, Reservation_fails = 28510
	L1D_cache_core[19]: Access = 48576, Miss = 48576, Miss_rate = 1.000, Pending_hits = 0, Reservation_fails = 28226
	L1D_cache_core[20]: Access = 48544, Miss = 48544, Miss_rate = 1.000, Pending_hits = 0, Reservation_fails = 28498
	L1D_cache_core[21]: Access = 47360, Miss = 47360, Miss_rate = 1.000, Pending_hits = 0, Reservation_fails = 29284
	L1D_cache_core[22]: Access = 47520, Miss = 47520, Miss_rate = 1.000, Pending_hits = 0, Reservation_fails = 29459
	L1D_cache_core[23]: Access = 47670, Miss = 47670, Miss_rate = 1.000, Pending_hits = 0, Reservation_fails = 28720
	L1D_cache_core[24]: Access = 48192, Miss = 48192, Miss_rate = 1.000, Pending_hits = 0, Reservation_fails = 28665
	L1D_cache_core[25]: Access = 48480, Miss = 48480, Miss_rate = 1.000, Pending_hits = 0, Reservation_fails = 28198
	L1D_cache_core[26]: Access = 48032, Miss = 48032, Miss_rate = 1.000, Pending_hits = 0, Reservation_fails = 28745
	L1D_cache_core[27]: Access = 48640, Miss = 48640, Miss_rate = 1.000, Pending_hits = 0, Reservation_fails = 28174
	L1D_cache_core[28]: Access = 48640, Miss = 48640, Miss_rate = 1.000, Pending_hits = 0, Reservation_fails = 27995
	L1D_cache_core[29]: Access = 48736, Miss = 48736, Miss_rate = 1.000, Pending_hits = 0, Reservation_fails = 28308
	L1D_total_cache_accesses = 1443606
	L1D_total_cache_misses = 1443606
	L1D_total_cache_miss_rate = 1.0000
	L1D_total_cache_pending_hits = 0
	L1D_total_cache_reservation_fails = 862922
	L1D_cache_data_port_util = 0.000
	L1D_cache_fill_port_util = 0.000
L1C_cache:
	L1C_total_cache_accesses = 0
	L1C_total_cache_misses = 0
	L1C_total_cache_pending_hits = 0
	L1C_total_cache_reservation_fails = 0
L1T_cache:
	L1T_total_cache_accesses = 0
	L1T_total_cache_misses = 0
	L1T_total_cache_pending_hits = 0
	L1T_total_cache_reservation_fails = 0

Total_core_cache_stats:
	Total_core_cache_stats_breakdown[GLOBAL_ACC_R][HIT] = 0
	Total_core_cache_stats_breakdown[GLOBAL_ACC_R][HIT_RESERVED] = 0
	Total_core_cache_stats_breakdown[GLOBAL_ACC_R][MISS] = 0
	Total_core_cache_stats_breakdown[GLOBAL_ACC_R][RESERVATION_FAIL] = 0
	Total_core_cache_stats_breakdown[GLOBAL_ACC_R][SECTOR_MISS] = 0
	Total_core_cache_stats_breakdown[GLOBAL_ACC_R][MSHR_HIT] = 0
	Total_core_cache_stats_breakdown[LOCAL_ACC_R][HIT] = 0
	Total_core_cache_stats_breakdown[LOCAL_ACC_R][HIT_RESERVED] = 0
	Total_core_cache_stats_breakdown[LOCAL_ACC_R][MISS] = 0
	Total_core_cache_stats_breakdown[LOCAL_ACC_R][RESERVATION_FAIL] = 0
	Total_core_cache_stats_breakdown[LOCAL_ACC_R][SECTOR_MISS] = 0
	Total_core_cache_stats_breakdown[LOCAL_ACC_R][MSHR_HIT] = 0
	Total_core_cache_stats_breakdown[CONST_ACC_R][HIT] = 0
	Total_core_cache_stats_breakdown[CONST_ACC_R][HIT_RESERVED] = 0
	Total_core_cache_stats_breakdown[CONST_ACC_R][MISS] = 0
	Total_core_cache_stats_breakdown[CONST_ACC_R][RESERVATION_FAIL] = 0
	Total_core_cache_stats_breakdown[CONST_ACC_R][SECTOR_MISS] = 0
	Total_core_cache_stats_breakdown[CONST_ACC_R][MSHR_HIT] = 0
	Total_core_cache_stats_breakdown[TEXTURE_ACC_R][HIT] = 0
	Total_core_cache_stats_breakdown[TEXTURE_ACC_R][HIT_RESERVED] = 0
	Total_core_cache_stats_breakdown[TEXTURE_ACC_R][MISS] = 0
	Total_core_cache_stats_breakdown[TEXTURE_ACC_R][RESERVATION_FAIL] = 0
	Total_core_cache_stats_breakdown[TEXTURE_ACC_R][SECTOR_MISS] = 0
	Total_core_cache_stats_breakdown[TEXTURE_ACC_R][MSHR_HIT] = 0
	Total_core_cache_stats_breakdown[GLOBAL_ACC_W][HIT] = 0
	Total_core_cache_stats_breakdown[GLOBAL_ACC_W][HIT_RESERVED] = 0
	Total_core_cache_stats_breakdown[GLOBAL_ACC_W][MISS] = 360902
	Total_core_cache_stats_breakdown[GLOBAL_ACC_W][RESERVATION_FAIL] = 862922
	Total_core_cache_stats_breakdown[GLOBAL_ACC_W][SECTOR_MISS] = 1082704
	Total_core_cache_stats_breakdown[GLOBAL_ACC_W][MSHR_HIT] = 0
	Total_core_cache_stats_breakdown[LOCAL_ACC_W][HIT] = 0
	Total_core_cache_stats_breakdown[LOCAL_ACC_W][HIT_RESERVED] = 0
	Total_core_cache_stats_breakdown[LOCAL_ACC_W][MISS] = 0
	Total_core_cache_stats_breakdown[LOCAL_ACC_W][RESERVATION_FAIL] = 0
	Total_core_cache_stats_breakdown[LOCAL_ACC_W][SECTOR_MISS] = 0
	Total_core_cache_stats_breakdown[LOCAL_ACC_W][MSHR_HIT] = 0
	Total_core_cache_stats_breakdown[L1_WRBK_ACC][HIT] = 0
	Total_core_cache_stats_breakdown[L1_WRBK_ACC][HIT_RESERVED] = 0
	Total_core_cache_stats_breakdown[L1_WRBK_ACC][MISS] = 0
	Total_core_cache_stats_breakdown[L1_WRBK_ACC][RESERVATION_FAIL] = 0
	Total_core_cache_stats_breakdown[L1_WRBK_ACC][SECTOR_MISS] = 0
	Total_core_cache_stats_breakdown[L1_WRBK_ACC][MSHR_HIT] = 0
	Total_core_cache_stats_breakdown[L2_WRBK_ACC][HIT] = 0
	Total_core_cache_stats_breakdown[L2_WRBK_ACC][HIT_RESERVED] = 0
	Total_core_cache_stats_breakdown[L2_WRBK_ACC][MISS] = 0
	Total_core_cache_stats_breakdown[L2_WRBK_ACC][RESERVATION_FAIL] = 0
	Total_core_cache_stats_breakdown[L2_WRBK_ACC][SECTOR_MISS] = 0
	Total_core_cache_stats_breakdown[L2_WRBK_ACC][MSHR_HIT] = 0
	Total_core_cache_stats_breakdown[INST_ACC_R][HIT] = 0
	Total_core_cache_stats_breakdown[INST_ACC_R][HIT_RESERVED] = 0
	Total_core_cache_stats_breakdown[INST_ACC_R][MISS] = 0
	Total_core_cache_stats_breakdown[INST_ACC_R][RESERVATION_FAIL] = 0
	Total_core_cache_stats_breakdown[INST_ACC_R][SECTOR_MISS] = 0
	Total_core_cache_stats_breakdown[INST_ACC_R][MSHR_HIT] = 0
	Total_core_cache_stats_breakdown[L1_WR_ALLOC_R][HIT] = 0
	Total_core_cache_stats_breakdown[L1_WR_ALLOC_R][HIT_RESERVED] = 0
	Total_core_cache_stats_breakdown[L1_WR_ALLOC_R][MISS] = 0
	Total_core_cache_stats_breakdown[L1_WR_ALLOC_R][RESERVATION_FAIL] = 0
	Total_core_cache_stats_breakdown[L1_WR_ALLOC_R][SECTOR_MISS] = 0
	Total_core_cache_stats_breakdown[L1_WR_ALLOC_R][MSHR_HIT] = 0
	Total_core_cache_stats_breakdown[L2_WR_ALLOC_R][HIT] = 0
	Total_core_cache_stats_breakdown[L2_WR_ALLOC_R][HIT_RESERVED] = 0
	Total_core_cache_stats_breakdown[L2_WR_ALLOC_R][MISS] = 0
	Total_core_cache_stats_breakdown[L2_WR_ALLOC_R][RESERVATION_FAIL] = 0
	Total_core_cache_stats_breakdown[L2_WR_ALLOC_R][SECTOR_MISS] = 0
	Total_core_cache_stats_breakdown[L2_WR_ALLOC_R][MSHR_HIT] = 0
	Total_core_cache_stats_breakdown[GLOBAL_ACC_W][TOTAL_ACCESS] = 1443606

Total_core_cache_fail_stats:
	Total_core_cache_fail_stats_breakdown[GLOBAL_ACC_W][MISS_QUEUE_FULL] = 862922
ctas_completed 45113, Shader 0 warp_id issue ditsribution:
warp_id:
0, 1, 2, 3, 4, 5, 6, 7, 8, 9, 10, 11, 12, 13, 14, 15, 16, 17, 18, 19, 20, 21, 22, 23, 24, 25, 26, 27, 28, 29, 30, 31, 
distro:
5236, 5236, 5236, 5236, 5236, 5236, 5236, 5236, 5236, 5236, 5236, 5236, 5236, 5236, 5236, 5236, 5250, 5250, 5250, 5250, 5250, 5250, 5250, 5250, 5264, 5264, 5264, 5264, 5264, 5264, 5264, 5264, 
gpgpu_n_tot_thrd_icount = 161684672
gpgpu_n_tot_w_icount = 5052646
gpgpu_n_stall_shd_mem = 0
gpgpu_n_mem_read_local = 0
gpgpu_n_mem_write_local = 0
gpgpu_n_mem_read_global = 0
gpgpu_n_mem_write_global = 1443606
gpgpu_n_mem_texture = 0
gpgpu_n_mem_const = 0
gpgpu_n_load_insn  = 0
gpgpu_n_store_insn = 11548845
gpgpu_n_shmem_insn = 0
gpgpu_n_sstarr_insn = 0
gpgpu_n_tex_insn = 0
gpgpu_n_const_mem_insn = 0
gpgpu_n_param_mem_insn = 23097856
gpgpu_n_shmem_bkconflict = 0
gpgpu_n_cache_bkconflict = 0
gpgpu_n_intrawarp_mshr_merge = 0
gpgpu_n_cmem_portconflict = 0
gpgpu_stall_shd_mem[c_mem][resource_stall] = 0
gpgpu_stall_shd_mem[s_mem][bk_conf] = 0
gpgpu_stall_shd_mem[gl_mem][resource_stall] = 0
gpgpu_stall_shd_mem[gl_mem][coal_stall] = 0
gpgpu_stall_shd_mem[gl_mem][data_port_stall] = 0
gpu_reg_bank_conflict_stalls = 0
Warp Occupancy Distribution:
Stall:957121	W0_Idle:12403766	W0_Scoreboard:3760155	W1:0	W2:0	W3:0	W4:0	W5:0	W6:0	W7:0	W8:0	W9:0	W10:0	W11:0	W12:0	W13:5	W14:0	W15:0	W16:0	W17:0	W18:0	W19:0	W20:0	W21:0	W22:0	W23:0	W24:0	W25:0	W26:0	W27:0	W28:0	W29:0	W30:0	W31:0	W32:5052641
single_issue_nums: WS0:1263164	WS1:1263164	WS2:1263159	WS3:1263159	
dual_issue_nums: WS0:0	WS1:0	WS2:0	WS3:0	
traffic_breakdown_coretomem[GLOBAL_ACC_W] = 57744240 {40:1443606,}
traffic_breakdown_memtocore[GLOBAL_ACC_W] = 11548848 {8:1443606,}
maxmflatency = 603 
max_icnt2mem_latency = 403 
maxmrqlatency = 1500 
max_icnt2sh_latency = 135 
averagemflatency = 330 
avg_icnt2mem_latency = 52 
avg_mrq_latency = 396 
avg_icnt2sh_latency = 5 
mrq_lat_table:20923 	48 	125 	315 	595 	4537 	46395 	50653 	108931 	94737 	6505 	0 	0 	0 	0 	0 	0 	0 	0 	0 	0 	0 	0 	0 	0 	0 	0 	0 	0 	0 	0 	0 	
dq_lat_table:0 	0 	0 	0 	0 	0 	0 	0 	0 	0 	0 	0 	0 	0 	0 	0 	0 	0 	0 	0 	0 	0 	0 	0 	0 	0 	0 	0 	0 	0 	0 	0 	
mf_lat_table:0 	0 	0 	0 	0 	0 	0 	342386 	1099751 	1469 	0 	0 	0 	0 	0 	0 	0 	0 	0 	0 	0 	0 	0 	0 	0 	0 	0 	0 	0 	0 	0 	0 	
icnt2mem_lat_table:0 	0 	0 	0 	0 	1279986 	152243 	8693 	2684 	0 	0 	0 	0 	0 	0 	0 	0 	0 	0 	0 	0 	0 	0 	0 	
icnt2sh_lat_table:0 	935138 	289639 	132097 	57349 	26665 	2712 	6 	0 	0 	0 	0 	0 	0 	0 	0 	0 	0 	0 	0 	0 	0 	0 	0 	
mf_lat_pw_table:0 	0 	0 	0 	0 	0 	0 	0 	184 	0 	0 	0 	0 	0 	0 	0 	0 	0 	0 	0 	0 	0 	0 	0 	0 	0 	0 	0 	0 	0 	0 	0 	
maximum concurrent accesses to same row:
dram[0]:        16        16        16        16        16        16        16        16        16        16        16        16        16        16        16        16 
dram[1]:        16        16        16        16        16        16        16        16        16        16        16        16        16        16        16        16 
dram[2]:        16        16        16        16        16        16        16        16        16        16        16        16        16        16        16        16 
dram[3]:        16        16        16        16        16        16        16        16        16        16        16        16        16        16        16        16 
dram[4]:        16        16        16        16        16        16        16        16        16        16        16        16        16        16        16        16 
dram[5]:        16        16        16        16        16        16        16        16        16        16        16        16        16        16        16        16 
dram[6]:        16        16        16        16        16        16        16        16        16        16        16        16        16        16        16        16 
dram[7]:        16        16        16        16        16        16        16        16        16        16        16        16        16        16        16        16 
dram[8]:        16        16        16        16        16        16        16        16        16        16        16        16        16        16        16        16 
dram[9]:        16        16        16        16        16        16        16        16        16        16        16        16        16        16        16        16 
dram[10]:        16        16        16        16        16        16        16        16        16        16        16        16        16        16        16        16 
dram[11]:        16        16        16        16        16        16        16        16        16        16        16        16        16        16        16        16 
maximum service time to same row:
dram[0]:     17542     17520     16147     16139     16564     16550     16357     16361     16849     16856     16702     16708     17193     17201     17013     17011 
dram[1]:     17519     17543     16143     16153     16554     16579     16366     16371     16858     16868     16711     16717     17201     17208     17015     17023 
dram[2]:     17548     17522     16166     16169     16578     16568     16376     16379     16871     16878     16719     16726     17209     17214     17028     17033 
dram[3]:     17535     17546     16169     16170     16581     16578     16379     16379     16882     16874     16725     16726     17214     17216     17033     17034 
dram[4]:     17510     17514     16147     16139     16564     16550     16357     16361     16864     16877     16702     16706     17203     17206     17017     17021 
dram[5]:     17518     17522     16143     16153     16554     16569     16366     16371     16861     16876     16717     16715     17205     17213     17025     17029 
dram[6]:     17528     17531     16166     16169     16574     16568     16376     16379     16889     16896     16722     16733     17218     17222     17033     17035 
dram[7]:     17531     17529     16169     16170     16579     16576     16379     16379     16882     16896     16726     16728     17226     17226     17036     17037 
dram[8]:     17553     17555     16173     16168     16568     16579     16403     16395     16862     16856     16702     16710     17203     17210     17019     17023 
dram[9]:     17560     17568     16151     16152     16579     16582     16399     16407     16861     16874     16715     16718     17209     17221     17026     17029 
dram[10]:     17573     17576     16162     16165     16587     16590     16411     16415     16872     16875     16724     16730     17225     17231     17041     17046 
dram[11]:     17576     17576     16175     16168     16589     16591     16416     16417     16880     16879     16724     16728     17232     17233     17047     17047 
average row accesses per activate:
dram[0]: 16.000000 16.000000 15.871560 15.871560 15.863636 15.863636 15.936363 15.927273 15.917431 15.926605 15.935780 15.926605 15.944954 15.963303 15.981651 15.981651 
dram[1]: 16.000000 16.000000 15.871560 15.871560 15.863636 15.863636 15.909091 15.918181 15.908257 15.917431 15.935780 15.944954 15.981651 15.972477 15.981651 15.981651 
dram[2]: 16.000000 16.000000 15.871560 15.871560 16.000000 16.000000 15.918181 15.918181 15.926605 15.899082 15.926605 15.926605 15.944954 15.963303 15.990826 16.000000 
dram[3]: 15.981482 15.981482 15.871560 15.871560 16.000000 16.000000 15.890909 15.890909 15.935780 15.935780 15.944954 15.963303 15.981651 15.972477 15.963303 15.963303 
dram[4]: 16.000000 16.000000 15.871560 15.871560 15.863636 15.863636 15.909091 15.918181 15.944954 15.935780 15.935780 15.944954 15.944954 15.954128 15.963303 15.972477 
dram[5]: 16.000000 16.000000 15.871560 15.871560 16.000000 16.000000 15.890909 15.890909 15.917431 15.917431 15.935780 15.926605 15.954128 15.963303 16.000000 16.000000 
dram[6]: 15.990741 15.990741 15.871560 15.871560 16.000000 16.000000 15.881818 15.881818 15.935780 15.944954 15.935780 15.935780 15.963303 15.963303 15.981651 15.981651 
dram[7]: 16.000000 16.000000 15.871560 15.871560 16.000000 16.000000 15.881818 15.890909 15.926605 15.926605 15.935780 15.926605 15.954128 15.963303 15.990826 15.990826 
dram[8]: 16.000000 16.000000 15.880733 15.880733 15.863636 15.863636 15.918181 15.918181 15.935780 15.935780 15.926605 15.926605 15.963303 15.963303 15.972477 15.972477 
dram[9]: 16.000000 16.000000 15.880733 15.880733 15.863636 15.863636 15.927273 15.909091 15.926605 15.926605 15.944954 15.944954 15.954128 15.954128 15.972477 15.972477 
dram[10]: 16.000000 16.000000 15.871560 15.871560 16.000000 16.000000 15.881818 15.881818 15.926605 15.926605 15.954128 15.954128 15.963303 15.972477 15.972477 15.972477 
dram[11]: 16.000000 16.000000 15.880733 15.880733 15.863636 15.863636 15.900000 15.909091 15.917431 15.917431 15.954128 15.954128 15.963303 15.954128 15.972477 15.972477 
average row locality = 333764/20940 = 15.939064
number of total memory accesses made:
dram[0]:         0         0         0         0         0         0         0         0         0         0         0         0         0         0         0         0 
dram[1]:         0         0         0         0         0         0         0         0         0         0         0         0         0         0         0         0 
dram[2]:         0         0         0         0         0         0         0         0         0         0         0         0         0         0         0         0 
dram[3]:         0         0         0         0         0         0         0         0         0         0         0         0         0         0         0         0 
dram[4]:         0         0         0         0         0         0         0         0         0         0         0         0         0         0         0         0 
dram[5]:         0         0         0         0         0         0         0         0         0         0         0         0         0         0         0         0 
dram[6]:         0         0         0         0         0         0         0         0         0         0         0         0         0         0         0         0 
dram[7]:         0         0         0         0         0         0         0         0         0         0         0         0         0         0         0         0 
dram[8]:         0         0         0         0         0         0         0         0         0         0         0         0         0         0         0         0 
dram[9]:         0         0         0         0         0         0         0         0         0         0         0         0         0         0         0         0 
dram[10]:         0         0         0         0         0         0         0         0         0         0         0         0         0         0         0         0 
dram[11]:         0         0         0         0         0         0         0         0         0         0         0         0         0         0         0         0 
total accesses: 0
min_bank_accesses = 0!
min_chip_accesses = 0!
number of total read accesses:
dram[0]:         0         0         0         0         0         0         0         0         0         0         0         0         0         0         0         0 
dram[1]:         0         0         0         0         0         0         0         0         0         0         0         0         0         0         0         0 
dram[2]:         0         0         0         0         0         0         0         0         0         0         0         0         0         0         0         0 
dram[3]:         0         0         0         0         0         0         0         0         0         0         0         0         0         0         0         0 
dram[4]:         0         0         0         0         0         0         0         0         0         0         0         0         0         0         0         0 
dram[5]:         0         0         0         0         0         0         0         0         0         0         0         0         0         0         0         0 
dram[6]:         0         0         0         0         0         0         0         0         0         0         0         0         0         0         0         0 
dram[7]:         0         0         0         0         0         0         0         0         0         0         0         0         0         0         0         0 
dram[8]:         0         0         0         0         0         0         0         0         0         0         0         0         0         0         0         0 
dram[9]:         0         0         0         0         0         0         0         0         0         0         0         0         0         0         0         0 
dram[10]:         0         0         0         0         0         0         0         0         0         0         0         0         0         0         0         0 
[...]
Wasted_Col = 134 
Wasted_Row = 24 
Idle = 100785 

BW Util Bottlenecks: 
RCDc_limit = 24 
RCDWRc_limit = 54 
WTRc_limit = 0 
RTWc_limit = 18 
CCDLc_limit = 62 
rwq = 0 
CCDLc_limit_alone = 62 
WTRc_limit_alone = 0 
RTWc_limit_alone = 18 

Commands details: 
total_CMD = 549379 
n_nop = 433784 
Read = 1 
Write = 0 
L2_Alloc = 0 
L2_WB = 112108 
n_act = 1756 
n_pre = 1740 
n_ref = 0 
n_req = 28028 
total_req = 112109 

Dual Bus Interface Util: 
issued_total_row = 3496 
issued_total_col = 112109 
Row_Bus_Util =  0.006364 
CoL_Bus_Util = 0.204065 
Either_Row_CoL_Bus_Util = 0.210410 
Issued_on_Two_Bus_Simul_Util = 0.000018 
issued_two_Eff = 0.000087 
queue_avg = 51.830551 


dram_util_bins: 0 0 0 0 0 0 0 0 0 0
dram_eff_bins: 0 0 0 0 0 0 0 0 0 0
mrqq: max=64 avg=51.8306
Memory Partition 6: 
Cache L2_bank_012:
MSHR contents

Cache L2_bank_013:
MSHR contents

In Dram Latency Queue (total = 0): 
DRAM[6]: 16 bks, busW=2 BL=16 CL=24, tRRD=12 tCCD=4, tRCD=24 tRAS=55 tRP=24 tRC=78
n_cmd=549379 n_nop=433780 n_act=1757 n_pre=1741 n_ref_event=0 n_req=28029 n_rd=1 n_rd_L2_A=0 n_write=0 n_wr_bk=112112 bw_util=0.8163
n_activity=448816 dram_eff=0.9992
bk0: 0a 288725i bk1: 0a 286484i bk2: 0a 233269i bk3: 0a 232788i bk4: 0a 285913i bk5: 0a 283035i bk6: 0a 240344i bk7: 0a 238680i bk8: 0a 296582i bk9: 0a 295556i bk10: 1a 243074i bk11: 0a 239312i bk12: 0a 283379i bk13: 0a 285519i bk14: 0a 233801i bk15: 0a 228485i 

------------------------------------------------------------------------

Row_Buffer_Locality = 0.937315
Row_Buffer_Locality_read = 0.000000
Row_Buffer_Locality_write = 0.937348
Bank_Level_Parallism = 10.303873
Bank_Level_Parallism_Col = 10.187124
Bank_Level_Parallism_Ready = 7.429504
write_to_read_ratio_blp_rw_average = 0.999960
GrpLevelPara = 3.994953 

BW Util details:
bwutil = 0.816289 
total_CMD = 549379 
util_bw = 448452 
Wasted_Col = 152 
Wasted_Row = 48 
Idle = 100727 

BW Util Bottlenecks: 
RCDc_limit = 24 
RCDWRc_limit = 71 
WTRc_limit = 0 
RTWc_limit = 18 
CCDLc_limit = 65 
rwq = 0 
CCDLc_limit_alone = 65 
WTRc_limit_alone = 0 
RTWc_limit_alone = 18 

Commands details: 
total_CMD = 549379 
n_nop = 433780 
Read = 1 
Write = 0 
L2_Alloc = 0 
L2_WB = 112112 
n_act = 1757 
n_pre = 1741 
n_ref = 0 
n_req = 28029 
total_req = 112113 

Dual Bus Interface Util: 
issued_total_row = 3498 
issued_total_col = 112113 
Row_Bus_Util =  0.006367 
CoL_Bus_Util = 0.204072 
Either_Row_CoL_Bus_Util = 0.210418 
Issued_on_Two_Bus_Simul_Util = 0.000022 
issued_two_Eff = 0.000104 
queue_avg = 51.841679 


dram_util_bins: 0 0 0 0 0 0 0 0 0 0
dram_eff_bins: 0 0 0 0 0 0 0 0 0 0
mrqq: max=64 avg=51.8417
Memory Partition 7: 
Cache L2_bank_014:
MSHR contents

Cache L2_bank_015:
MSHR contents

In Dram Latency Queue (total = 0): 
DRAM[7]: 16 bks, busW=2 BL=16 CL=24, tRRD=12 tCCD=4, tRCD=24 tRAS=55 tRP=24 tRC=78
n_cmd=549379 n_nop=433795 n_act=1754 n_pre=1738 n_ref_event=0 n_req=28026 n_rd=0 n_rd_L2_A=0 n_write=0 n_wr_bk=112104 bw_util=0.8162
n_activity=448595 dram_eff=0.9996
bk0: 0a 290761i bk1: 0a 286800i bk2: 0a 234150i bk3: 0a 234948i bk4: 0a 283436i bk5: 0a 282682i bk6: 0a 234359i bk7: 0a 241069i bk8: 0a 294072i bk9: 0a 290352i bk10: 0a 236921i bk11: 0a 237001i bk12: 0a 285070i bk13: 0a 282007i bk14: 0a 232891i bk15: 0a 235403i 

------------------------------------------------------------------------

Row_Buffer_Locality = 0.937415
Row_Buffer_Locality_read = -nan
Row_Buffer_Locality_write = 0.937415
Bank_Level_Parallism = 10.340135
Bank_Level_Parallism_Col = 10.221958
Bank_Level_Parallism_Ready = 7.456693
write_to_read_ratio_blp_rw_average = 1.000000
GrpLevelPara = 3.995362 

BW Util details:
bwutil = 0.816223 
total_CMD = 549379 
util_bw = 448416 
Wasted_Col = 66 
Wasted_Row = 0 
Idle = 100897 

BW Util Bottlenecks: 
RCDc_limit = 0 
RCDWRc_limit = 46 
WTRc_limit = 0 
RTWc_limit = 0 
CCDLc_limit = 37 
rwq = 0 
CCDLc_limit_alone = 37 
WTRc_limit_alone = 0 
RTWc_limit_alone = 0 

Commands details: 
total_CMD = 549379 
n_nop = 433795 
Read = 0 
Write = 0 
L2_Alloc = 0 
L2_WB = 112104 
n_act = 1754 
n_pre = 1738 
n_ref = 0 
n_req = 28026 
total_req = 112104 

Dual Bus Interface Util: 
issued_total_row = 3492 
issued_total_col = 112104 
Row_Bus_Util =  0.006356 
CoL_Bus_Util = 0.204056 
Either_Row_CoL_Bus_Util = 0.210390 
Issued_on_Two_Bus_Simul_Util = 0.000022 
issued_two_Eff = 0.000104 
queue_avg = 51.850105 


dram_util_bins: 0 0 0 0 0 0 0 0 0 0
dram_eff_bins: 0 0 0 0 0 0 0 0 0 0
mrqq: max=64 avg=51.8501
Memory Partition 8: 
Cache L2_bank_016:
MSHR contents

Cache L2_bank_017:
MSHR contents

In Dram Latency Queue (total = 0): 
DRAM[8]: 16 bks, busW=2 BL=16 CL=24, tRRD=12 tCCD=4, tRCD=24 tRAS=55 tRP=24 tRC=78
n_cmd=549379 n_nop=433784 n_act=1754 n_pre=1738 n_ref_event=0 n_req=28029 n_rd=0 n_rd_L2_A=0 n_write=0 n_wr_bk=112116 bw_util=0.8163
n_activity=448649 dram_eff=0.9996
bk0: 0a 288220i bk1: 0a 283289i bk2: 0a 232765i bk3: 0a 233401i bk4: 0a 280433i bk5: 0a 283654i bk6: 0a 240764i bk7: 0a 240935i bk8: 0a 292364i bk9: 0a 287335i bk10: 0a 236784i bk11: 0a 237328i bk12: 0a 285294i bk13: 0a 284140i bk14: 0a 230263i bk15: 0a 228725i 

------------------------------------------------------------------------

Row_Buffer_Locality = 0.937422
Row_Buffer_Locality_read = -nan
Row_Buffer_Locality_write = 0.937422
Bank_Level_Parallism = 10.371861
Bank_Level_Parallism_Col = 10.253984
Bank_Level_Parallism_Ready = 7.482621
write_to_read_ratio_blp_rw_average = 1.000000
GrpLevelPara = 3.995407 

BW Util details:
bwutil = 0.816311 
total_CMD = 549379 
util_bw = 448464 
Wasted_Col = 71 
Wasted_Row = 0 
Idle = 100844 

BW Util Bottlenecks: 
RCDc_limit = 0 
RCDWRc_limit = 41 
WTRc_limit = 0 
RTWc_limit = 0 
CCDLc_limit = 40 
rwq = 0 
CCDLc_limit_alone = 40 
WTRc_limit_alone = 0 
RTWc_limit_alone = 0 

Commands details: 
total_CMD = 549379 
n_nop = 433784 
Read = 0 
Write = 0 
L2_Alloc = 0 
L2_WB = 112116 
n_act = 1754 
n_pre = 1738 
n_ref = 0 
n_req = 28029 
total_req = 112116 

Dual Bus Interface Util: 
issued_total_row = 3492 
issued_total_col = 112116 
Row_Bus_Util =  0.006356 
CoL_Bus_Util = 0.204078 
Either_Row_CoL_Bus_Util = 0.210410 
Issued_on_Two_Bus_Simul_Util = 0.000024 
issued_two_Eff = 0.000112 
queue_avg = 51.838371 


dram_util_bins: 0 0 0 0 0 0 0 0 0 0
dram_eff_bins: 0 0 0 0 0 0 0 0 0 0
mrqq: max=64 avg=51.8384
Memory Partition 9: 
Cache L2_bank_018:
MSHR contents

Cache L2_bank_019:
MSHR contents

In Dram Latency Queue (total = 0): 
DRAM[9]: 16 bks, busW=2 BL=16 CL=24, tRRD=12 tCCD=4, tRCD=24 tRAS=55 tRP=24 tRC=78
n_cmd=549379 n_nop=433783 n_act=1754 n_pre=1738 n_ref_event=0 n_req=28028 n_rd=0 n_rd_L2_A=0 n_write=0 n_wr_bk=112112 bw_util=0.8163
n_activity=448639 dram_eff=0.9996
bk0: 0a 287236i bk1: 0a 283473i bk2: 0a 239046i bk3: 0a 233213i bk4: 0a 283357i bk5: 0a 281350i bk6: 0a 237995i bk7: 0a 236906i bk8: 0a 290776i bk9: 0a 290027i bk10: 0a 240640i bk11: 0a 234988i bk12: 0a 287690i bk13: 0a 286047i bk14: 0a 234790i bk15: 0a 232293i 

------------------------------------------------------------------------

Row_Buffer_Locality = 0.937420
Row_Buffer_Locality_read = -nan
Row_Buffer_Locality_write = 0.937420
Bank_Level_Parallism = 10.340262
Bank_Level_Parallism_Col = 10.222741
Bank_Level_Parallism_Ready = 7.458288
write_to_read_ratio_blp_rw_average = 1.000000
GrpLevelPara = 3.995202 

BW Util details:
bwutil = 0.816282 
total_CMD = 549379 
util_bw = 448448 
Wasted_Col = 80 
Wasted_Row = 0 
Idle = 100851 

BW Util Bottlenecks: 
RCDc_limit = 0 
RCDWRc_limit = 42 
WTRc_limit = 0 
RTWc_limit = 0 
CCDLc_limit = 51 
rwq = 0 
CCDLc_limit_alone = 51 
WTRc_limit_alone = 0 
RTWc_limit_alone = 0 

Commands details: 
total_CMD = 549379 
n_nop = 433783 
Read = 0 
Write = 0 
L2_Alloc = 0 
L2_WB = 112112 
n_act = 1754 
n_pre = 1738 
n_ref = 0 
n_req = 28028 
total_req = 112112 

Dual Bus Interface Util: 
issued_total_row = 3492 
issued_total_col = 112112 
Row_Bus_Util =  0.006356 
CoL_Bus_Util = 0.204070 
Either_Row_CoL_Bus_Util = 0.210412 
Issued_on_Two_Bus_Simul_Util = 0.000015 
issued_two_Eff = 0.000069 
queue_avg = 51.848679 


dram_util_bins: 0 0 0 0 0 0 0 0 0 0
dram_eff_bins: 0 0 0 0 0 0 0 0 0 0
mrqq: max=64 avg=51.8487
Memory Partition 10: 
Cache L2_bank_020:
MSHR contents

Cache L2_bank_021:
MSHR contents

In Dram Latency Queue (total = 0): 
DRAM[10]: 16 bks, busW=2 BL=16 CL=24, tRRD=12 tCCD=4, tRCD=24 tRAS=55 tRP=24 tRC=78
n_cmd=549379 n_nop=433780 n_act=1756 n_pre=1740 n_ref_event=0 n_req=28030 n_rd=1 n_rd_L2_A=0 n_write=0 n_wr_bk=112116 bw_util=0.8163
n_activity=448826 dram_eff=0.9992
bk0: 0a 287291i bk1: 0a 286502i bk2: 1a 235350i bk3: 0a 233011i bk4: 0a 283361i bk5: 0a 284038i bk6: 0a 240300i bk7: 0a 234408i bk8: 0a 292101i bk9: 0a 291406i bk10: 0a 238604i bk11: 0a 236072i bk12: 0a 284723i bk13: 0a 285084i bk14: 0a 234490i bk15: 0a 232782i 

------------------------------------------------------------------------

Row_Buffer_Locality = 0.937353
Row_Buffer_Locality_read = 0.000000
Row_Buffer_Locality_write = 0.937386
Bank_Level_Parallism = 10.338483
Bank_Level_Parallism_Col = 10.221252
Bank_Level_Parallism_Ready = 7.453214
write_to_read_ratio_blp_rw_average = 0.999946
GrpLevelPara = 3.995008 

BW Util details:
bwutil = 0.816318 
total_CMD = 549379 
util_bw = 448468 
Wasted_Col = 121 
Wasted_Row = 48 
Idle = 100742 

BW Util Bottlenecks: 
RCDc_limit = 24 
RCDWRc_limit = 59 
WTRc_limit = 0 
RTWc_limit = 0 
CCDLc_limit = 52 
rwq = 0 
CCDLc_limit_alone = 52 
WTRc_limit_alone = 0 
RTWc_limit_alone = 0 

Commands details: 
total_CMD = 549379 
n_nop = 433780 
Read = 1 
Write = 0 
L2_Alloc = 0 
L2_WB = 112116 
n_act = 1756 
n_pre = 1740 
n_ref = 0 
n_req = 28030 
total_req = 112117 

Dual Bus Interface Util: 
issued_total_row = 3496 
issued_total_col = 112117 
Row_Bus_Util =  0.006364 
CoL_Bus_Util = 0.204080 
Either_Row_CoL_Bus_Util = 0.210418 
Issued_on_Two_Bus_Simul_Util = 0.000025 
issued_two_Eff = 0.000121 
queue_avg = 51.851635 


dram_util_bins: 0 0 0 0 0 0 0 0 0 0
dram_eff_bins: 0 0 0 0 0 0 0 0 0 0
mrqq: max=64 avg=51.8516
Memory Partition 11: 
Cache L2_bank_022:
MSHR contents

Cache L2_bank_023:
MSHR contents

In Dram Latency Queue (total = 0): 
DRAM[11]: 16 bks, busW=2 BL=16 CL=24, tRRD=12 tCCD=4, tRCD=24 tRAS=55 tRP=24 tRC=78
n_cmd=549379 n_nop=433774 n_act=1756 n_pre=1740 n_ref_event=0 n_req=28030 n_rd=1 n_rd_L2_A=0 n_write=0 n_wr_bk=112116 bw_util=0.8163
n_activity=448722 dram_eff=0.9994
bk0: 0a 289822i bk1: 0a 287781i bk2: 0a 236812i bk3: 0a 232698i bk4: 0a 284000i bk5: 0a 284919i bk6: 0a 232653i bk7: 0a 235710i bk8: 0a 294496i bk9: 0a 293361i bk10: 0a 241088i bk11: 0a 238728i bk12: 1a 289686i bk13: 0a 289398i bk14: 0a 234654i bk15: 0a 233161i 

------------------------------------------------------------------------

Row_Buffer_Locality = 0.937353
Row_Buffer_Locality_read = 0.000000
Row_Buffer_Locality_write = 0.937386
Bank_Level_Parallism = 10.295935
Bank_Level_Parallism_Col = 10.177339
Bank_Level_Parallism_Ready = 7.421506
write_to_read_ratio_blp_rw_average = 0.999960
GrpLevelPara = 3.994578 

BW Util details:
bwutil = 0.816318 
total_CMD = 549379 
util_bw = 448468 
Wasted_Col = 118 
Wasted_Row = 24 
Idle = 100769 

BW Util Bottlenecks: 
RCDc_limit = 24 
RCDWRc_limit = 55 
WTRc_limit = 0 
RTWc_limit = 18 
CCDLc_limit = 46 
rwq = 0 
CCDLc_limit_alone = 46 
WTRc_limit_alone = 0 
RTWc_limit_alone = 18 

Commands details: 
total_CMD = 549379 
n_nop = 433774 
Read = 1 
Write = 0 
L2_Alloc = 0 
L2_WB = 112116 
n_act = 1756 
n_pre = 1740 
n_ref = 0 
n_req = 28030 
total_req = 112117 

Dual Bus Interface Util: 
issued_total_row = 3496 
issued_total_col = 112117 
Row_Bus_Util =  0.006364 
CoL_Bus_Util = 0.204080 
Either_Row_CoL_Bus_Util = 0.210429 
Issued_on_Two_Bus_Simul_Util = 0.000015 
issued_two_Eff = 0.000069 
queue_avg = 51.850842 


dram_util_bins: 0 0 0 0 0 0 0 0 0 0
dram_eff_bins: 0 0 0 0 0 0 0 0 0 0
mrqq: max=64 avg=51.8508

========= L2 cache stats =========
L2_cache_bank[0]: Access = 60154, Miss = 60153, Miss_rate = 1.000, Pending_hits = 0, Reservation_fails = 0
L2_cache_bank[1]: Access = 60152, Miss = 60152, Miss_rate = 1.000, Pending_hits = 0, Reservation_fails = 0
L2_cache_bank[2]: Access = 60153, Miss = 60153, Miss_rate = 1.000, Pending_hits = 0, Reservation_fails = 0
L2_cache_bank[3]: Access = 60152, Miss = 60152, Miss_rate = 1.000, Pending_hits = 0, Reservation_fails = 0
L2_cache_bank[4]: Access = 60152, Miss = 60152, Miss_rate = 1.000, Pending_hits = 0, Reservation_fails = 0
L2_cache_bank[5]: Access = 60150, Miss = 60150, Miss_rate = 1.000, Pending_hits = 0, Reservation_fails = 0
L2_cache_bank[6]: Access = 60150, Miss = 60150, Miss_rate = 1.000, Pending_hits = 0, Reservation_fails = 0
L2_cache_bank[7]: Access = 60148, Miss = 60148, Miss_rate = 1.000, Pending_hits = 0, Reservation_fails = 0
L2_cache_bank[8]: Access = 60148, Miss = 60148, Miss_rate = 1.000, Pending_hits = 0, Reservation_fails = 0
L2_cache_bank[9]: Access = 60148, Miss = 60148, Miss_rate = 1.000, Pending_hits = 0, Reservation_fails = 0
L2_cache_bank[10]: Access = 60149, Miss = 60149, Miss_rate = 1.000, Pending_hits = 0, Reservation_fails = 0
L2_cache_bank[11]: Access = 60148, Miss = 60148, Miss_rate = 1.000, Pending_hits = 0, Reservation_fails = 0
L2_cache_bank[12]: Access = 60152, Miss = 60150, Miss_rate = 1.000, Pending_hits = 0, Reservation_fails = 0
L2_cache_bank[13]: Access = 60148, Miss = 60148, Miss_rate = 1.000, Pending_hits = 0, Reservation_fails = 0
L2_cache_bank[14]: Access = 60148, Miss = 60148, Miss_rate = 1.000, Pending_hits = 0, Reservation_fails = 0
L2_cache_bank[15]: Access = 60148, Miss = 60148, Miss_rate = 1.000, Pending_hits = 0, Reservation_fails = 0
L2_cache_bank[16]: Access = 60153, Miss = 60153, Miss_rate = 1.000, Pending_hits = 0, Reservation_fails = 0
L2_cache_bank[17]: Access = 60152, Miss = 60152, Miss_rate = 1.000, Pending_hits = 0, Reservation_fails = 0
L2_cache_bank[18]: Access = 60152, Miss = 60152, Miss_rate = 1.000, Pending_hits = 0, Reservation_fails = 0
L2_cache_bank[19]: Access = 60152, Miss = 60152, Miss_rate = 1.000, Pending_hits = 0, Reservation_fails = 0
L2_cache_bank[20]: Access = 60155, Miss = 60154, Miss_rate = 1.000, Pending_hits = 0, Reservation_fails = 0
L2_cache_bank[21]: Access = 60152, Miss = 60152, Miss_rate = 1.000, Pending_hits = 0, Reservation_fails = 0
L2_cache_bank[22]: Access = 60154, Miss = 60153, Miss_rate = 1.000, Pending_hits = 0, Reservation_fails = 0
L2_cache_bank[23]: Access = 60152, Miss = 60152, Miss_rate = 1.000, Pending_hits = 0, Reservation_fails = 0
L2_total_cache_accesses = 1443622
L2_total_cache_misses = 1443617
L2_total_cache_miss_rate = 1.0000
L2_total_cache_pending_hits = 0
L2_total_cache_reservation_fails = 0
L2_total_cache_breakdown:
	L2_cache_stats_breakdown[GLOBAL_ACC_R][HIT] = 4
	L2_cache_stats_breakdown[GLOBAL_ACC_R][HIT_RESERVED] = 0
	L2_cache_stats_breakdown[GLOBAL_ACC_R][MISS] = 4
	L2_cache_stats_breakdown[GLOBAL_ACC_R][RESERVATION_FAIL] = 0
	L2_cache_stats_breakdown[GLOBAL_ACC_R][SECTOR_MISS] = 2
	L2_cache_stats_breakdown[GLOBAL_ACC_R][MSHR_HIT] = 0
	L2_cache_stats_breakdown[LOCAL_ACC_R][HIT] = 0
	L2_cache_stats_breakdown[LOCAL_ACC_R][HIT_RESERVED] = 0
	L2_cache_stats_breakdown[LOCAL_ACC_R][MISS] = 0
	L2_cache_stats_breakdown[LOCAL_ACC_R][RESERVATION_FAIL] = 0
	L2_cache_stats_breakdown[LOCAL_ACC_R][SECTOR_MISS] = 0
	L2_cache_stats_breakdown[LOCAL_ACC_R][MSHR_HIT] = 0
	L2_cache_stats_breakdown[CONST_ACC_R][HIT] = 0
	L2_cache_stats_breakdown[CONST_ACC_R][HIT_RESERVED] = 0
	L2_cache_stats_breakdown[CONST_ACC_R][MISS] = 0
	L2_cache_stats_breakdown[CONST_ACC_R][RESERVATION_FAIL] = 0
	L2_cache_stats_breakdown[CONST_ACC_R][SECTOR_MISS] = 0
	L2_cache_stats_breakdown[CONST_ACC_R][MSHR_HIT] = 0
	L2_cache_stats_breakdown[TEXTURE_ACC_R][HIT] = 0
	L2_cache_stats_breakdown[TEXTURE_ACC_R][HIT_RESERVED] = 0
	L2_cache_stats_breakdown[TEXTURE_ACC_R][MISS] = 0
	L2_cache_stats_breakdown[TEXTURE_ACC_R][RESERVATION_FAIL] = 0
	L2_cache_stats_breakdown[TEXTURE_ACC_R][SECTOR_MISS] = 0
	L2_cache_stats_breakdown[TEXTURE_ACC_R][MSHR_HIT] = 0
	L2_cache_stats_breakdown[GLOBAL_ACC_W][HIT] = 1
	L2_cache_stats_breakdown[GLOBAL_ACC_W][HIT_RESERVED] = 0
	L2_cache_stats_breakdown[GLOBAL_ACC_W][MISS] = 360907
	L2_cache_stats_breakdown[GLOBAL_ACC_W][RESERVATION_FAIL] = 0
	L2_cache_stats_breakdown[GLOBAL_ACC_W][SECTOR_MISS] = 1082704
	L2_cache_stats_breakdown[GLOBAL_ACC_W][MSHR_HIT] = 0
	L2_cache_stats_breakdown[LOCAL_ACC_W][HIT] = 0
	L2_cache_stats_breakdown[LOCAL_ACC_W][HIT_RESERVED] = 0
	L2_cache_stats_breakdown[LOCAL_ACC_W][MISS] = 0
	L2_cache_stats_breakdown[LOCAL_ACC_W][RESERVATION_FAIL] = 0
	L2_cache_stats_breakdown[LOCAL_ACC_W][SECTOR_MISS] = 0
	L2_cache_stats_breakdown[LOCAL_ACC_W][MSHR_HIT] = 0
	L2_cache_stats_breakdown[L1_WRBK_ACC][HIT] = 0
	L2_cache_stats_breakdown[L1_WRBK_ACC][HIT_RESERVED] = 0
	L2_cache_stats_breakdown[L1_WRBK_ACC][MISS] = 0
	L2_cache_stats_breakdown[L1_WRBK_ACC][RESERVATION_FAIL] = 0
	L2_cache_stats_breakdown[L1_WRBK_ACC][SECTOR_MISS] = 0
	L2_cache_stats_breakdown[L1_WRBK_ACC][MSHR_HIT] = 0
	L2_cache_stats_breakdown[L2_WRBK_ACC][HIT] = 0
	L2_cache_stats_breakdown[L2_WRBK_ACC][HIT_RESERVED] = 0
	L2_cache_stats_breakdown[L2_WRBK_ACC][MISS] = 0
	L2_cache_stats_breakdown[L2_WRBK_ACC][RESERVATION_FAIL] = 0
	L2_cache_stats_breakdown[L2_WRBK_ACC][SECTOR_MISS] = 0
	L2_cache_stats_breakdown[L2_WRBK_ACC][MSHR_HIT] = 0
	L2_cache_stats_breakdown[INST_ACC_R][HIT] = 0
	L2_cache_stats_breakdown[INST_ACC_R][HIT_RESERVED] = 0
	L2_cache_stats_breakdown[INST_ACC_R][MISS] = 0
	L2_cache_stats_breakdown[INST_ACC_R][RESERVATION_FAIL] = 0
	L2_cache_stats_breakdown[INST_ACC_R][SECTOR_MISS] = 0
	L2_cache_stats_breakdown[INST_ACC_R][MSHR_HIT] = 0
	L2_cache_stats_breakdown[L1_WR_ALLOC_R][HIT] = 0
	L2_cache_stats_breakdown[L1_WR_ALLOC_R][HIT_RESERVED] = 0
	L2_cache_stats_breakdown[L1_WR_ALLOC_R][MISS] = 0
	L2_cache_stats_breakdown[L1_WR_ALLOC_R][RESERVATION_FAIL] = 0
	L2_cache_stats_breakdown[L1_WR_ALLOC_R][SECTOR_MISS] = 0
	L2_cache_stats_breakdown[L1_WR_ALLOC_R][MSHR_HIT] = 0
	L2_cache_stats_breakdown[L2_WR_ALLOC_R][HIT] = 0
	L2_cache_stats_breakdown[L2_WR_ALLOC_R][HIT_RESERVED] = 0
	L2_cache_stats_breakdown[L2_WR_ALLOC_R][MISS] = 0
	L2_cache_stats_breakdown[L2_WR_ALLOC_R][RESERVATION_FAIL] = 0
	L2_cache_stats_breakdown[L2_WR_ALLOC_R][SECTOR_MISS] = 0
	L2_cache_stats_breakdown[L2_WR_ALLOC_R][MSHR_HIT] = 0
	L2_cache_stats_breakdown[GLOBAL_ACC_R][TOTAL_ACCESS] = 10
	L2_cache_stats_breakdown[GLOBAL_ACC_W][TOTAL_ACCESS] = 1443612
L2_total_cache_reservation_fail_breakdown:
L2_cache_data_port_util = 0.262
L2_cache_fill_port_util = 0.000

icnt_total_pkts_mem_to_simt=1443622
icnt_total_pkts_simt_to_mem=1443622
LD_mem_lat_dist  0 0 0 0 0 0 0 0 0 0 0 0 0 0 0 0 0 0 0 0 0 0 0 0 0 0 0
ST_mem_lat_dist  0 0 0 0 0 0 0 0 0 0 0 0 0 0 0 0 0 0 0 0 0 0 0 0 0 0 0
----------------------------Interconnect-DETAILS--------------------------------
Req_Network_injected_packets_num = 1443622
Req_Network_cycles = 214231
Req_Network_injected_packets_per_cycle =       6.7386 
Req_Network_conflicts_per_cycle =       1.1654
Req_Network_conflicts_per_cycle_util =       1.3619
Req_Bank_Level_Parallism =       7.8746
Req_Network_in_buffer_full_per_cycle =       0.0000
Req_Network_in_buffer_avg_util =       0.7156
Req_Network_out_buffer_full_per_cycle =       0.0000
Req_Network_out_buffer_avg_util =       0.4689

Reply_Network_injected_packets_num = 1443622
Reply_Network_cycles = 214231
Reply_Network_injected_packets_per_cycle =        6.7386
Reply_Network_conflicts_per_cycle =        3.8807
Reply_Network_conflicts_per_cycle_util =       4.5235
Reply_Bank_Level_Parallism =       7.8549
Reply_Network_in_buffer_full_per_cycle =       0.0000
Reply_Network_in_buffer_avg_util =       0.9052
Reply_Network_out_buffer_full_per_cycle =       0.0000
Reply_Network_out_buffer_avg_util =       0.2246
----------------------------END-of-Interconnect-DETAILS-------------------------


gpgpu_simulation_time = 0 days, 0 hrs, 34 min, 52 sec (2092 sec)
gpgpu_simulation_rate = 71774 (inst/sec)
gpgpu_simulation_rate = 102 (cycle/sec)
gpgpu_silicon_slowdown = 13382352x
