

        *** GPGPU-Sim Simulator Version 4.2.0  [build gpgpu-sim_git-commit-5e9d31b8132651796656877ecb58fde27177ba7a_modified_315.0] ***


GPGPU-Sim PTX: simulation mode 0 (can change with PTX_SIM_MODE_FUNC environment variable:
               1=functional simulation only, 0=detailed performance simulator)
GPGPU-Sim PTX: overriding embedded ptx with ptx file (PTX_SIM_USE_PTX_FILE is set)
GPGPU-Sim: Configuration options:

-save_embedded_ptx                      0 # saves ptx files embedded in binary as <n>.ptx
-keep                                   0 # keep intermediate files created by GPGPU-Sim when interfacing with external programs
-gpgpu_ptx_save_converted_ptxplus                    0 # Saved converted ptxplus to a file
-gpgpu_occupancy_sm_number                   75 # The SM number to pass to ptxas when getting register usage for computing GPU occupancy. This parameter is required in the config.
-ptx_opcode_latency_int           4,4,4,4,21 # Opcode latencies for integers <ADD,MAX,MUL,MAD,DIV,SHFL>Default 1,1,19,25,145,32
-ptx_opcode_latency_fp           4,4,4,4,39 # Opcode latencies for single precision floating points <ADD,MAX,MUL,MAD,DIV>Default 1,1,1,1,30
-ptx_opcode_latency_dp      64,64,64,64,330 # Opcode latencies for double precision floating points <ADD,MAX,MUL,MAD,DIV>Default 8,8,8,8,335
-ptx_opcode_latency_sfu                   21 # Opcode latencies for SFU instructionsDefault 8
-ptx_opcode_latency_tesnor                   64 # Opcode latencies for Tensor instructionsDefault 64
-ptx_opcode_initiation_int            2,2,2,2,2 # Opcode initiation intervals for integers <ADD,MAX,MUL,MAD,DIV,SHFL>Default 1,1,4,4,32,4
-ptx_opcode_initiation_fp            2,2,2,2,4 # Opcode initiation intervals for single precision floating points <ADD,MAX,MUL,MAD,DIV>Default 1,1,1,1,5
-ptx_opcode_initiation_dp      64,64,64,64,130 # Opcode initiation intervals for double precision floating points <ADD,MAX,MUL,MAD,DIV>Default 8,8,8,8,130
-ptx_opcode_initiation_sfu                    8 # Opcode initiation intervals for sfu instructionsDefault 8
-ptx_opcode_initiation_tensor                   64 # Opcode initiation intervals for tensor instructionsDefault 64
-cdp_latency         7200,8000,100,12000,1600 # CDP API latency <cudaStreamCreateWithFlags, cudaGetParameterBufferV2_init_perWarp, cudaGetParameterBufferV2_perKernel, cudaLaunchDeviceV2_init_perWarp, cudaLaunchDevicV2_perKernel>Default 7200,8000,100,12000,1600
-network_mode                           2 # Interconnection network mode
-inter_config_file                   mesh # Interconnection network config file
-icnt_in_buffer_limit                  512 # in_buffer_limit
-icnt_out_buffer_limit                  512 # out_buffer_limit
-icnt_subnets                           2 # subnets
-icnt_arbiter_algo                      1 # arbiter_algo
-icnt_verbose                           0 # inct_verbose
-icnt_grant_cycles                      1 # grant_cycles
-gpgpu_ptx_use_cuobjdump                    1 # Use cuobjdump to extract ptx and sass from binaries
-gpgpu_experimental_lib_support                    0 # Try to extract code from cuda libraries [Broken because of unknown cudaGetExportTable]
-checkpoint_option                      0 #  checkpointing flag (0 = no checkpoint)
-checkpoint_kernel                      1 #  checkpointing during execution of which kernel (1- 1st kernel)
-checkpoint_CTA                         0 #  checkpointing after # of CTA (< less than total CTA)
-resume_option                          0 #  resume flag (0 = no resume)
-resume_kernel                          0 #  Resume from which kernel (1= 1st kernel)
-resume_CTA                             0 #  resume from which CTA 
-checkpoint_CTA_t                       0 #  resume from which CTA 
-checkpoint_insn_Y                      0 #  resume from which CTA 
-gpgpu_ptx_convert_to_ptxplus                    0 # Convert SASS (native ISA) to ptxplus and run ptxplus
-gpgpu_ptx_force_max_capability                   75 # Force maximum compute capability
-gpgpu_ptx_inst_debug_to_file                    0 # Dump executed instructions' debug information to file
-gpgpu_ptx_inst_debug_file       inst_debug.txt # Executed instructions' debug output file
-gpgpu_ptx_inst_debug_thread_uid                    1 # Thread UID for executed instructions' debug output
-gpgpu_simd_model                       1 # 1 = post-dominator
-gpgpu_shader_core_pipeline              1024:32 # shader core pipeline config, i.e., {<nthread>:<warpsize>}
-gpgpu_tex_cache:l1  N:4:128:256,L:R:m:N:L,T:512:8,128:2 # per-shader L1 texture cache  (READ-ONLY) config  {<nsets>:<bsize>:<assoc>,<rep>:<wr>:<alloc>:<wr_alloc>,<mshr>:<N>:<merge>,<mq>:<rf>}
-gpgpu_const_cache:l1 N:128:64:8,L:R:f:N:L,S:2:64,4 # per-shader L1 constant memory cache  (READ-ONLY) config  {<nsets>:<bsize>:<assoc>,<rep>:<wr>:<alloc>:<wr_alloc>,<mshr>:<N>:<merge>,<mq>} 
-gpgpu_cache:il1     N:64:128:16,L:R:f:N:L,S:2:48,4 # shader L1 instruction cache config  {<nsets>:<bsize>:<assoc>,<rep>:<wr>:<alloc>:<wr_alloc>,<mshr>:<N>:<merge>,<mq>} 
-gpgpu_cache:dl1     S:4:128:64,L:T:m:L:L,A:256:32,16:0,32 # per-shader L1 data cache config  {<nsets>:<bsize>:<assoc>,<rep>:<wr>:<alloc>:<wr_alloc>,<mshr>:<N>:<merge>,<mq> | none}
-gpgpu_l1_cache_write_ratio                   25 # L1D write ratio
-gpgpu_l1_banks                         4 # The number of L1 cache banks
-gpgpu_l1_banks_byte_interleaving                   32 # l1 banks byte interleaving granularity
-gpgpu_l1_banks_hashing_function                    0 # l1 banks hashing function
-gpgpu_l1_latency                      32 # L1 Hit Latency
-gpgpu_smem_latency                    30 # smem Latency
-gpgpu_cache:dl1PrefL1                 none # per-shader L1 data cache config  {<nsets>:<bsize>:<assoc>,<rep>:<wr>:<alloc>:<wr_alloc>,<mshr>:<N>:<merge>,<mq> | none}
-gpgpu_cache:dl1PrefShared                 none # per-shader L1 data cache config  {<nsets>:<bsize>:<assoc>,<rep>:<wr>:<alloc>:<wr_alloc>,<mshr>:<N>:<merge>,<mq> | none}
-gpgpu_gmem_skip_L1D                    0 # global memory access skip L1D cache (implements -Xptxas -dlcm=cg, default=no skip)
-gpgpu_perfect_mem                      0 # enable perfect memory mode (no cache miss)
-n_regfile_gating_group                    4 # group of lanes that should be read/written together)
-gpgpu_clock_gated_reg_file                    0 # enable clock gated reg file for power calculations
-gpgpu_clock_gated_lanes                    0 # enable clock gated lanes for power calculations
-gpgpu_shader_registers                65536 # Number of registers per shader core. Limits number of concurrent CTAs. (default 8192)
-gpgpu_registers_per_block                65536 # Maximum number of registers per CTA. (default 8192)
-gpgpu_ignore_resources_limitation                    0 # gpgpu_ignore_resources_limitation (default 0)
-gpgpu_shader_cta                      16 # Maximum number of concurrent CTAs in shader (default 32)
-gpgpu_num_cta_barriers                   16 # Maximum number of named barriers per CTA (default 16)
-gpgpu_n_clusters                      30 # number of processing clusters
-gpgpu_n_cores_per_cluster                    1 # number of simd cores per cluster
-gpgpu_n_cluster_ejection_buffer_size                   32 # number of packets in ejection buffer
-gpgpu_n_ldst_response_buffer_size                    2 # number of response packets in ld/st unit ejection buffer
-gpgpu_shmem_per_block                49152 # Size of shared memory per thread block or CTA (default 48kB)
-gpgpu_shmem_size                   65536 # Size of shared memory per shader core (default 16kB)
-gpgpu_shmem_option                 32,64 # Option list of shared memory sizes
-gpgpu_unified_l1d_size                   96 # Size of unified data cache(L1D + shared memory) in KB
-gpgpu_adaptive_cache_config                    1 # adaptive_cache_config
-gpgpu_shmem_sizeDefault                65536 # Size of shared memory per shader core (default 16kB)
-gpgpu_shmem_size_PrefL1                16384 # Size of shared memory per shader core (default 16kB)
-gpgpu_shmem_size_PrefShared                16384 # Size of shared memory per shader core (default 16kB)
-gpgpu_shmem_num_banks                   32 # Number of banks in the shared memory in each shader core (default 16)
-gpgpu_shmem_limited_broadcast                    0 # Limit shared memory to do one broadcast per cycle (default on)
-gpgpu_shmem_warp_parts                    1 # Number of portions a warp is divided into for shared memory bank conflict check 
-gpgpu_mem_unit_ports                    1 # The number of memory transactions allowed per core cycle
-gpgpu_shmem_warp_parts                    1 # Number of portions a warp is divided into for shared memory bank conflict check 
-gpgpu_warpdistro_shader                   -1 # Specify which shader core to collect the warp size distribution from
-gpgpu_warp_issue_shader                    0 # Specify which shader core to collect the warp issue distribution from
-gpgpu_local_mem_map                    1 # Mapping from local memory space address to simulated GPU physical address space (default = enabled)
-gpgpu_num_reg_banks                    8 # Number of register banks (default = 8)
-gpgpu_reg_bank_use_warp_id                    0 # Use warp ID in mapping registers to banks (default = off)
-gpgpu_sub_core_model                    1 # Sub Core Volta/Pascal model (default = off)
-gpgpu_enable_specialized_operand_collector                    0 # enable_specialized_operand_collector
-gpgpu_operand_collector_num_units_sp                    4 # number of collector units (default = 4)
-gpgpu_operand_collector_num_units_dp                    0 # number of collector units (default = 0)
-gpgpu_operand_collector_num_units_sfu                    4 # number of collector units (default = 4)
-gpgpu_operand_collector_num_units_int                    0 # number of collector units (default = 0)
-gpgpu_operand_collector_num_units_tensor_core                    4 # number of collector units (default = 4)
-gpgpu_operand_collector_num_units_mem                    2 # number of collector units (default = 2)
-gpgpu_operand_collector_num_units_gen                    8 # number of collector units (default = 0)
-gpgpu_operand_collector_num_in_ports_sp                    1 # number of collector unit in ports (default = 1)
-gpgpu_operand_collector_num_in_ports_dp                    0 # number of collector unit in ports (default = 0)
-gpgpu_operand_collector_num_in_ports_sfu                    1 # number of collector unit in ports (default = 1)
-gpgpu_operand_collector_num_in_ports_int                    0 # number of collector unit in ports (default = 0)
-gpgpu_operand_collector_num_in_ports_tensor_core                    1 # number of collector unit in ports (default = 1)
-gpgpu_operand_collector_num_in_ports_mem                    1 # number of collector unit in ports (default = 1)
-gpgpu_operand_collector_num_in_ports_gen                    8 # number of collector unit in ports (default = 0)
-gpgpu_operand_collector_num_out_ports_sp                    1 # number of collector unit in ports (default = 1)
-gpgpu_operand_collector_num_out_ports_dp                    0 # number of collector unit in ports (default = 0)
-gpgpu_operand_collector_num_out_ports_sfu                    1 # number of collector unit in ports (default = 1)
-gpgpu_operand_collector_num_out_ports_int                    0 # number of collector unit in ports (default = 0)
-gpgpu_operand_collector_num_out_ports_tensor_core                    1 # number of collector unit in ports (default = 1)
-gpgpu_operand_collector_num_out_ports_mem                    1 # number of collector unit in ports (default = 1)
-gpgpu_operand_collector_num_out_ports_gen                    8 # number of collector unit in ports (default = 0)
-gpgpu_coalesce_arch                   75 # Coalescing arch (GT200 = 13, Fermi = 20)
-gpgpu_num_sched_per_core                    4 # Number of warp schedulers per core
-gpgpu_max_insn_issue_per_warp                    1 # Max number of instructions that can be issued per warp in one cycle by scheduler (either 1 or 2)
-gpgpu_dual_issue_diff_exec_units                    1 # should dual issue use two different execution unit resources (Default = 1)
-gpgpu_simt_core_sim_order                    1 # Select the simulation order of cores in a cluster (0=Fix, 1=Round-Robin)
-gpgpu_pipeline_widths 4,4,4,4,4,4,4,4,4,4,8,4,4 # Pipeline widths ID_OC_SP,ID_OC_DP,ID_OC_INT,ID_OC_SFU,ID_OC_MEM,OC_EX_SP,OC_EX_DP,OC_EX_INT,OC_EX_SFU,OC_EX_MEM,EX_WB,ID_OC_TENSOR_CORE,OC_EX_TENSOR_CORE
-gpgpu_tensor_core_avail                    1 # Tensor Core Available (default=0)
-gpgpu_num_sp_units                     4 # Number of SP units (default=1)
-gpgpu_num_dp_units                     4 # Number of DP units (default=0)
-gpgpu_num_int_units                    4 # Number of INT units (default=0)
-gpgpu_num_sfu_units                    4 # Number of SF units (default=1)
-gpgpu_num_tensor_core_units                    4 # Number of tensor_core units (default=1)
-gpgpu_num_mem_units                    1 # Number if ldst units (default=1) WARNING: not hooked up to anything
-gpgpu_scheduler                      lrr # Scheduler configuration: < lrr | gto | two_level_active > If two_level_active:<num_active_warps>:<inner_prioritization>:<outer_prioritization>For complete list of prioritization values see shader.h enum scheduler_prioritization_typeDefault: gto
-gpgpu_concurrent_kernel_sm                    0 # Support concurrent kernels on a SM (default = disabled)
-gpgpu_perfect_inst_const_cache                    1 # perfect inst and const cache mode, so all inst and const hits in the cache(default = disabled)
-gpgpu_inst_fetch_throughput                    4 # the number of fetched intruction per warp each cycle
-gpgpu_reg_file_port_throughput                    2 # the number ports of the register file
-specialized_unit_1         0,4,4,4,4,BRA # specialized unit config {<enabled>,<num_units>:<latency>:<initiation>,<ID_OC_SPEC>:<OC_EX_SPEC>,<NAME>}
-specialized_unit_2         0,4,4,4,4,BRA # specialized unit config {<enabled>,<num_units>:<latency>:<initiation>,<ID_OC_SPEC>:<OC_EX_SPEC>,<NAME>}
-specialized_unit_3         0,4,4,4,4,BRA # specialized unit config {<enabled>,<num_units>:<latency>:<initiation>,<ID_OC_SPEC>:<OC_EX_SPEC>,<NAME>}
-specialized_unit_4         0,4,4,4,4,BRA # specialized unit config {<enabled>,<num_units>:<latency>:<initiation>,<ID_OC_SPEC>:<OC_EX_SPEC>,<NAME>}
-specialized_unit_5         0,4,4,4,4,BRA # specialized unit config {<enabled>,<num_units>:<latency>:<initiation>,<ID_OC_SPEC>:<OC_EX_SPEC>,<NAME>}
-specialized_unit_6         0,4,4,4,4,BRA # specialized unit config {<enabled>,<num_units>:<latency>:<initiation>,<ID_OC_SPEC>:<OC_EX_SPEC>,<NAME>}
-specialized_unit_7         0,4,4,4,4,BRA # specialized unit config {<enabled>,<num_units>:<latency>:<initiation>,<ID_OC_SPEC>:<OC_EX_SPEC>,<NAME>}
-specialized_unit_8         0,4,4,4,4,BRA # specialized unit config {<enabled>,<num_units>:<latency>:<initiation>,<ID_OC_SPEC>:<OC_EX_SPEC>,<NAME>}
-gpgpu_perf_sim_memcpy                    1 # Fill the L2 cache on memcpy
-gpgpu_simple_dram_model                    0 # simple_dram_model with fixed latency and BW
-gpgpu_dram_scheduler                    1 # 0 = fifo, 1 = FR-FCFS (defaul)
-gpgpu_dram_partition_queues          64:64:64:64 # i2$:$2d:d2$:$2i
-l2_ideal                               0 # Use a ideal L2 cache that always hit
-gpgpu_cache:dl2     S:64:128:16,L:B:m:L:P,A:192:4,32:0,32 # unified banked L2 data cache config  {<nsets>:<bsize>:<assoc>,<rep>:<wr>:<alloc>:<wr_alloc>,<mshr>:<N>:<merge>,<mq>}
-gpgpu_cache:dl2_texture_only                    0 # L2 cache used for texture only
-gpgpu_n_mem                           12 # number of memory modules (e.g. memory controllers) in gpu
-gpgpu_n_sub_partition_per_mchannel                    2 # number of memory subpartition in each memory module
-gpgpu_n_mem_per_ctrlr                    1 # number of memory chips per memory controller
-gpgpu_memlatency_stat                   14 # track and display latency statistics 0x2 enables MC, 0x4 enables queue logs
-gpgpu_frfcfs_dram_sched_queue_size                   64 # 0 = unlimited (default); # entries per chip
-gpgpu_dram_return_queue_size                  192 # 0 = unlimited (default); # entries per chip
-gpgpu_dram_buswidth                    2 # default = 4 bytes (8 bytes per cycle at DDR)
-gpgpu_dram_burst_length                   16 # Burst length of each DRAM request (default = 4 data bus cycle)
-dram_data_command_freq_ratio                    4 # Frequency ratio between DRAM data bus and command bus (default = 2 times, i.e. DDR)
-gpgpu_dram_timing_opt nbk=16:CCD=4:RRD=12:RCD=24:RAS=55:RP=24:RC=78:CL=24:WL=8:CDLR=10:WR=24:nbkgrp=4:CCDL=6:RTPL=4 # DRAM timing parameters = {nbk:tCCD:tRRD:tRCD:tRAS:tRP:tRC:CL:WL:tCDLR:tWR:nbkgrp:tCCDL:tRTPL}
-gpgpu_l2_rop_latency                  194 # ROP queue latency (default 85)
-dram_latency                          96 # DRAM latency (default 30)
-dram_dual_bus_interface                    0 # dual_bus_interface (default = 0) 
-dram_bnk_indexing_policy                    0 # dram_bnk_indexing_policy (0 = normal indexing, 1 = Xoring with the higher bits) (Default = 0)
-dram_bnkgrp_indexing_policy                    1 # dram_bnkgrp_indexing_policy (0 = take higher bits, 1 = take lower bits) (Default = 0)
-dram_seperate_write_queue_enable                    0 # Seperate_Write_Queue_Enable
-dram_write_queue_size             32:28:16 # Write_Queue_Size
-dram_elimnate_rw_turnaround                    0 # elimnate_rw_turnaround i.e set tWTR and tRTW = 0
-icnt_flit_size                        40 # icnt_flit_size
-icnt_flit_size                        40 # icnt_flit_size
-mem_profiler                           0 # memory access runtime profiling (0 = not enabled)
-gpgpu_mem_addr_mapping dramid@8;00000000.00000000.00000000.00000000.0000RRRR.RRRRRRRR.RBBBCCCC.BCCSSSSS # mapping memory address to dram model {dramid@<start bit>;<memory address map>}
-gpgpu_mem_addr_test                    0 # run sweep test to check address mapping for aliased address
-gpgpu_mem_address_mask                    1 # 0 = old addressing mask, 1 = new addressing mask, 2 = new add. mask + flipped bank sel and chip sel bits
-gpgpu_memory_partition_indexing                    0 # 0 = no indexing, 1 = bitwise xoring, 2 = IPoly, 3 = custom indexing
-accelwattch_xml_file accelwattch_sass_sim.xml # AccelWattch XML file
-power_simulation_enabled                    1 # Turn on power simulator (1=On, 0=Off)
-power_per_cycle_dump                    1 # Dump detailed power output each cycle
-hw_perf_file_name            hw_perf.csv # Hardware Performance Statistics file
-hw_perf_bench_name    hw_perf_bench_name # Kernel Name in Hardware Performance Statistics file
-power_simulation_mode                    0 # Switch performance counter input for power simulation (0=Sim, 1=HW, 2=HW-Sim Hybrid)
-dvfs_enabled                           1 # Turn on DVFS for power model
-aggregate_power_stats                    0 # Accumulate power across all kernels
-accelwattch_hybrid_perfsim_L1_RH                    0 # Get L1 Read Hits for Accelwattch-Hybrid from Accel-Sim
-accelwattch_hybrid_perfsim_L1_RM                    0 # Get L1 Read Misses for Accelwattch-Hybrid from Accel-Sim
-accelwattch_hybrid_perfsim_L1_WH                    0 # Get L1 Write Hits for Accelwattch-Hybrid from Accel-Sim
-accelwattch_hybrid_perfsim_L1_WM                    0 # Get L1 Write Misses for Accelwattch-Hybrid from Accel-Sim
-accelwattch_hybrid_perfsim_L2_RH                    0 # Get L2 Read Hits for Accelwattch-Hybrid from Accel-Sim
-accelwattch_hybrid_perfsim_L2_RM                    0 # Get L2 Read Misses for Accelwattch-Hybrid from Accel-Sim
-accelwattch_hybrid_perfsim_L2_WH                    0 # Get L2 Write Hits for Accelwattch-Hybrid from Accel-Sim
-accelwattch_hybrid_perfsim_L2_WM                    0 # Get L2 Write Misses for Accelwattch-Hybrid from Accel-Sim
-accelwattch_hybrid_perfsim_CC_ACC                    0 # Get Constant Cache Acesses for Accelwattch-Hybrid from Accel-Sim
-accelwattch_hybrid_perfsim_SHARED_ACC                    0 # Get Shared Memory Acesses for Accelwattch-Hybrid from Accel-Sim
-accelwattch_hybrid_perfsim_DRAM_RD                    0 # Get DRAM Reads for Accelwattch-Hybrid from Accel-Sim
-accelwattch_hybrid_perfsim_DRAM_WR                    0 # Get DRAM Writes for Accelwattch-Hybrid from Accel-Sim
-accelwattch_hybrid_perfsim_NOC                    0 # Get Interconnect Acesses for Accelwattch-Hybrid from Accel-Sim
-accelwattch_hybrid_perfsim_PIPE_DUTY                    0 # Get Pipeline Duty Cycle Acesses for Accelwattch-Hybrid from Accel-Sim
-accelwattch_hybrid_perfsim_NUM_SM_IDLE                    0 # Get Number of Idle SMs for Accelwattch-Hybrid from Accel-Sim
-accelwattch_hybrid_perfsim_CYCLES                    0 # Get Executed Cycles for Accelwattch-Hybrid from Accel-Sim
-accelwattch_hybrid_perfsim_VOLTAGE                    0 # Get Chip Voltage for Accelwattch-Hybrid from Accel-Sim
-power_trace_enabled                    0 # produce a file for the power trace (1=On, 0=Off)
-power_trace_zlevel                     0 # Compression level of the power trace output log (0=no comp, 9=highest)
-steady_power_levels_enabled                    0 # produce a file for the steady power levels (1=On, 0=Off)
-steady_state_definition                  8:4 # allowed deviation:number of samples
-gpgpu_max_cycle                        0 # terminates gpu simulation early (0 = no limit)
-gpgpu_max_insn                         0 # terminates gpu simulation early (0 = no limit)
-gpgpu_max_cta                          0 # terminates gpu simulation early (0 = no limit)
-gpgpu_max_completed_cta                    0 # terminates gpu simulation early (0 = no limit)
-gpgpu_runtime_stat                  1000 # display runtime statistics such as dram utilization {<freq>:<flag>}
-liveness_message_freq                    1 # Minimum number of seconds between simulation liveness messages (0 = always print)
-gpgpu_compute_capability_major                    7 # Major compute capability version number
-gpgpu_compute_capability_minor                    5 # Minor compute capability version number
-gpgpu_flush_l1_cache                    1 # Flush L1 cache at the end of each kernel call
-gpgpu_flush_l2_cache                    0 # Flush L2 cache at the end of each kernel call
-gpgpu_deadlock_detect                    1 # Stop the simulation at deadlock (1=on (default), 0=off)
-gpgpu_ptx_instruction_classification                    0 # if enabled will classify ptx instruction types per kernel (Max 255 kernels now)
-gpgpu_ptx_sim_mode                     0 # Select between Performance (default) or Functional simulation (1)
-gpgpu_clock_domains 1365:1365:1365:3500.5 # Clock Domain Frequencies in MhZ {<Core Clock>:<ICNT Clock>:<L2 Clock>:<DRAM Clock>}
-gpgpu_max_concurrent_kernel                  128 # maximum kernels that can run concurrently on GPU, set this value according to max resident grids for your compute capability
-gpgpu_cflog_interval                    0 # Interval between each snapshot in control flow logger
-visualizer_enabled                     0 # Turn on visualizer output (1=On, 0=Off)
-visualizer_outputfile                 NULL # Specifies the output log file for visualizer
-visualizer_zlevel                      6 # Compression level of the visualizer output log (0=no comp, 9=highest)
-gpgpu_stack_size_limit                 1024 # GPU thread stack size
-gpgpu_heap_size_limit              8388608 # GPU malloc heap size 
-gpgpu_runtime_sync_depth_limit                    2 # GPU device runtime synchronize depth
-gpgpu_runtime_pending_launch_count_limit                 2048 # GPU device runtime pending launch count
-trace_enabled                          0 # Turn on traces
-trace_components                    none # comma seperated list of traces to enable. Complete list found in trace_streams.tup. Default none
-trace_sampling_core                    0 # The core which is printed using CORE_DPRINTF. Default 0
-trace_sampling_memory_partition                   -1 # The memory partition which is printed using MEMPART_DPRINTF. Default -1 (i.e. all)
-enable_ptx_file_line_stats                    1 # Turn on PTX source line statistic profiling. (1 = On)
-ptx_line_stats_filename gpgpu_inst_stats.txt # Output file for PTX source line statistics.
-gpgpu_kernel_launch_latency                 5000 # Kernel launch latency in cycles. Default: 0
-gpgpu_cdp_enabled                      0 # Turn on CDP
-gpgpu_TB_launch_latency                    0 # thread block launch latency in cycles. Default: 0
-mem_runtime_stat                     100 # memory access runtime profiling samplinga51667d8e15abdb1f03be3ee4c9e19ba  /home/pars/Documents/sim_8/cc_warp
Extracting PTX file and ptxas options    1: cc_warp.1.sm_75.ptx -arch=sm_75
 freq
-L1D_metrics                            0 # memory access runtime profiling for L1 data cache
-IPC_per_prof_interval                    0 # IPC per profiling interval
-instruction_monitor                    0 # Instruction monitor
-noncoal_metrics                        0 # memory access runtime profiling for shared memory
-L2_metrics                             0 # memory access runtime profiling for L2 cache
-DRAM_metrics                           0 # memory access runtime profiling for DRAM
-Shmem_metrics                          0 # memory access runtime profiling for noncoalesced accesses
-store_enable                           0 # Enable stores for memory profiling
-accumulate_stats                       0 # Accumulate stats for the memory profiling
-dump_enable                            0 # Process dump enable flag - (def = 0)
-flush_l1d                              0 # Enable flushings for L1D caches - (default = 0)
-flush_l2                               0 # Enable flushings for L2 caches - (default = 0)
-flush_dram                             0 # Enable flushings for DRAM - (default = 0)
-flush_noncoalesceds                    0 # Enable flushings for non coalesced accesses - (default = 0)
-flush_shmems                           0 # Enable flushings for shared memory accesses - (default = 0)
-error_percentage          21474836480001 # Error percentage for the flushes - (default = 1)
-dump_sampling_cycle       21474836485000 # Dump sampling frequency - (default = 5000)
-flush_acc_type                         2 # Flush access types
-monitor_sampling_cycle                 5000 # Monitoring sampling cycle - (default = 5000)
DRAM Timing Options:
nbk                                    16 # number of banks
CCD                                     4 # column to column delay
RRD                                    12 # minimal delay between activation of rows in different banks
RCD                                    24 # row to column delay
RAS                                    55 # time needed to activate row
RP                                     24 # time needed to precharge (deactivate) row
RC                                     78 # row cycle time
CDLR                                   10 # switching from write to read (changes tWTR)
WR                                     24 # last data-in to row precharge
CL                                     24 # CAS latency
WL                                      8 # Write latency
nbkgrp                                  4 # number of bank groups
CCDL                                    6 # column to column delay between accesses to different bank groups
RTPL                                    4 # read to precharge delay between accesses to different bank groups
Total number of memory sub partition = 24
addr_dec_mask[CHIP]  = 0000000000000000 	high:64 low:0
addr_dec_mask[BK]    = 0000000000007080 	high:15 low:7
addr_dec_mask[ROW]   = 000000000fff8000 	high:28 low:15
addr_dec_mask[COL]   = 0000000000000f7f 	high:12 low:0
addr_dec_mask[BURST] = 000000000000001f 	high:5 low:0
sub_partition_id_mask = 0000000000000080
GPGPU-Sim uArch: clock freqs: 1365000000.000000:1365000000.000000:1365000000.000000:3500500000.000000
GPGPU-Sim uArch: clock periods: 0.00000000073260073260:0.00000000073260073260:0.00000000073260073260:0.00000000028567347522
*** Initializing Memory Statistics ***
GPGPU-Sim uArch: performance model initialization complete.
self exe links to: /home/pars/Documents/sim_8/cc_warp
self exe links to: /home/pars/Documents/sim_8/cc_warp
11.0
GPGPU-Sim PTX: __cudaRegisterFatBinary, fat_cubin_handle = 1, filename=default
self exe links to: /home/pars/Documents/sim_8/cc_warp
Running md5sum using "md5sum /home/pars/Documents/sim_8/cc_warp "
self exe links to: /home/pars/Documents/sim_8/cc_warp
Extracting specific PTX file named cc_warp.1.sm_75.ptx 
GPGPU-Sim PTX: __cudaRegisterFunction _Z8shortcutiPi : hostFun 0x0x557116c8ff0b, fat_cubin_handle = 1
GPGPU-Sim PTX: Parsing cc_warp.1.sm_75.ptx
GPGPU-Sim PTX: allocating shared region for "_ZZ4hookiPKmPKiPiPbE4ptrs" from 0x0 to 0x40 (shared memory space)
GPGPU-Sim PTX: instruction assembly for function '_Z4hookiPKmPKiPiPb'...   done.
GPGPU-Sim PTX: instruction assembly for function '_Z8shortcutiPi'...   done.
GPGPU-Sim PTX: finished parsing EMBEDDED .ptx file cc_warp.1.sm_75.ptx
GPGPU-Sim PTX: loading globals with explicit initializers... 
GPGPU-Sim PTX: finished loading globals (0 bytes total).
GPGPU-Sim PTX: loading constants with explicit initializers...  done.
GPGPU-Sim PTX: Loading PTXInfo from cc_warp.1.sm_75.ptx
GPGPU-Sim PTX: Kernel '_Z8shortcutiPi' : regs=12, lmem=0, smem=0, cmem=368
GPGPU-Sim PTX: Kernel '_Z4hookiPKmPKiPiPb' : regs=23, lmem=0, smem=64, cmem=392
GPGPU-Sim PTX: __cudaRegisterFunction _Z4hookiPKmPKiPiPb : hostFun 0x0x557116c8fd90, fat_cubin_handle = 1
Connected Component by Xuhao Chen
Reading (.mtx) input file ../CudaBenchmarks/gardenia/datasets/great-britain_osm.mtx
Removing redundent edges... 0 redundent edges are removed
|V| 7733822 |E| 16313034
This graph is symmetrized
Launching CUDA CC solver (120 CTAs, 256 threads/CTA) ...
GPGPU-Sim PTX: Setting up arguments for 4 bytes starting at 0x7ffc7215982c..
GPGPU-Sim PTX: Setting up arguments for 8 bytes starting at 0x7ffc72159820..
GPGPU-Sim PTX: Setting up arguments for 8 bytes starting at 0x7ffc72159818..
GPGPU-Sim PTX: Setting up arguments for 8 bytes starting at 0x7ffc72159810..
GPGPU-Sim PTX: Setting up arguments for 8 bytes starting at 0x7ffc72159808..

GPGPU-Sim PTX: cudaLaunch for 0x0x557116c8fd90 (mode=performance simulation) on stream 0
GPGPU-Sim PTX: finding reconvergence points for '_Z4hookiPKmPKiPiPb'...
GPGPU-Sim PTX: Finding dominators for '_Z4hookiPKmPKiPiPb'...
GPGPU-Sim PTX: Finding immediate dominators for '_Z4hookiPKmPKiPiPb'...
GPGPU-Sim PTX: Finding postdominators for '_Z4hookiPKmPKiPiPb'...
GPGPU-Sim PTX: Finding immediate postdominators for '_Z4hookiPKmPKiPiPb'...
GPGPU-Sim PTX: pre-decoding instructions for '_Z4hookiPKmPKiPiPb'...
GPGPU-Sim PTX: reconvergence points for _Z4hookiPKmPKiPiPb...
GPGPU-Sim PTX:  1 (potential) branch divergence @  PC=0x090 (cc_warp.1.sm_75.ptx:49) @%p1 bra $L__BB0_34;

GPGPU-Sim PTX:    immediate post dominator      @  PC=0x5c8 (cc_warp.1.sm_75.ptx:277) ret;

GPGPU-Sim PTX:  2 (potential) branch divergence @  PC=0x0f8 (cc_warp.1.sm_75.ptx:65) @%p2 bra $L__BB0_4;

GPGPU-Sim PTX:    immediate post dominator      @  PC=0x128 (cc_warp.1.sm_75.ptx:74) ld.shared.u32 %r9, [%r5];

GPGPU-Sim PTX:  3 (potential) branch divergence @  PC=0x160 (cc_warp.1.sm_75.ptx:81) @%p3 bra $L__BB0_33;

GPGPU-Sim PTX:    immediate post dominator      @  PC=0x5b0 (cc_warp.1.sm_75.ptx:272) add.s32 %r87, %r87, %r7;

GPGPU-Sim PTX:  4 (potential) branch divergence @  PC=0x1a0 (cc_warp.1.sm_75.ptx:90) @%p4 bra $L__BB0_18;

GPGPU-Sim PTX:    immediate post dominator      @  PC=0x370 (cc_warp.1.sm_75.ptx:171) setp.lt.u32 %p13, %r13, 96;

GPGPU-Sim PTX:  5 (potential) branch divergence @  PC=0x1e0 (cc_warp.1.sm_75.ptx:101) @%p5 bra $L__BB0_9;

GPGPU-Sim PTX:    immediate post dominator      @  PC=0x238 (cc_warp.1.sm_75.ptx:116) add.s32 %r88, %r11, 32;

GPGPU-Sim PTX:  6 (potential) branch divergence @  PC=0x220 (cc_warp.1.sm_75.ptx:110) @%p6 bra $L__BB0_9;

GPGPU-Sim PTX:    immediate post dominator      @  PC=0x238 (cc_warp.1.sm_75.ptx:116) add.s32 %r88, %r11, 32;

GPGPU-Sim PTX:  7 (potential) branch divergence @  PC=0x248 (cc_warp.1.sm_75.ptx:118) @%p7 bra $L__BB0_18;

GPGPU-Sim PTX:    immediate post dominator      @  PC=0x370 (cc_warp.1.sm_75.ptx:171) setp.lt.u32 %p13, %r13, 96;

GPGPU-Sim PTX:  8 (potential) branch divergence @  PC=0x278 (cc_warp.1.sm_75.ptx:127) @%p8 bra $L__BB0_13;

GPGPU-Sim PTX:    immediate post dominator      @  PC=0x2d0 (cc_warp.1.sm_75.ptx:142) add.s32 %r88, %r11, 64;

GPGPU-Sim PTX:  9 (potential) branch divergence @  PC=0x2b8 (cc_warp.1.sm_75.ptx:136) @%p9 bra $L__BB0_13;

GPGPU-Sim PTX:    immediate post dominator      @  PC=0x2d0 (cc_warp.1.sm_75.ptx:142) add.s32 %r88, %r11, 64;

GPGPU-Sim PTX: 10 (potential) branch divergence @  PC=0x2e0 (cc_warp.1.sm_75.ptx:144) @%p10 bra $L__BB0_18;

GPGPU-Sim PTX:    immediate post dominator      @  PC=0x370 (cc_warp.1.sm_75.ptx:171) setp.lt.u32 %p13, %r13, 96;

GPGPU-Sim PTX: 11 (potential) branch divergence @  PC=0x310 (cc_warp.1.sm_75.ptx:153) @%p11 bra $L__BB0_17;

GPGPU-Sim PTX:    immediate post dominator      @  PC=0x368 (cc_warp.1.sm_75.ptx:168) add.s32 %r88, %r11, 96;

GPGPU-Sim PTX: 12 (potential) branch divergence @  PC=0x350 (cc_warp.1.sm_75.ptx:162) @%p12 bra $L__BB0_17;

GPGPU-Sim PTX:    immediate post dominator      @  PC=0x368 (cc_warp.1.sm_75.ptx:168) add.s32 %r88, %r11, 96;

GPGPU-Sim PTX: 13 (potential) branch divergence @  PC=0x378 (cc_warp.1.sm_75.ptx:172) @%p13 bra $L__BB0_33;

GPGPU-Sim PTX:    immediate post dominator      @  PC=0x5b0 (cc_warp.1.sm_75.ptx:272) add.s32 %r87, %r87, %r7;

GPGPU-Sim PTX: 14 (potential) branch divergence @  PC=0x3b8 (cc_warp.1.sm_75.ptx:185) @%p14 bra $L__BB0_23;

GPGPU-Sim PTX:    immediate post dominator      @  PC=0x410 (cc_warp.1.sm_75.ptx:200) ld.global.u32 %r73, [%rd48+128];

GPGPU-Sim PTX: 15 (potential) branch divergence @  PC=0x3f8 (cc_warp.1.sm_75.ptx:194) @%p15 bra $L__BB0_23;

GPGPU-Sim PTX:    immediate post dominator      @  PC=0x410 (cc_warp.1.sm_75.ptx:200) ld.global.u32 %r73, [%rd48+128];

GPGPU-Sim PTX: 16 (potential) branch divergence @  PC=0x438 (cc_warp.1.sm_75.ptx:207) @%p16 bra $L__BB0_26;

GPGPU-Sim PTX:    immediate post dominator      @  PC=0x490 (cc_warp.1.sm_75.ptx:222) ld.global.u32 %r78, [%rd48+256];

GPGPU-Sim PTX: 17 (potential) branch divergence @  PC=0x478 (cc_warp.1.sm_75.ptx:216) @%p17 bra $L__BB0_26;

GPGPU-Sim PTX:    immediate post dominator      @  PC=0x490 (cc_warp.1.sm_75.ptx:222) ld.global.u32 %r78, [%rd48+256];

GPGPU-Sim PTX: 18 (potential) branch divergence @  PC=0x4b8 (cc_warp.1.sm_75.ptx:229) @%p18 bra $L__BB0_29;

GPGPU-Sim PTX:    immediate post dominator      @  PC=0x510 (cc_warp.1.sm_75.ptx:244) ld.global.u32 %r83, [%rd48+384];

GPGPU-Sim PTX: 19 (potential) branch divergence @  PC=0x4f8 (cc_warp.1.sm_75.ptx:238) @%p19 bra $L__BB0_29;

GPGPU-Sim PTX:    immediate post dominator      @  PC=0x510 (cc_warp.1.sm_75.ptx:244) ld.global.u32 %r83, [%rd48+384];

GPGPU-Sim PTX: 20 (potential) branch divergence @  PC=0x538 (cc_warp.1.sm_75.ptx:251) @%p20 bra $L__BB0_32;

GPGPU-Sim PTX:    immediate post dominator      @  PC=0x590 (cc_warp.1.sm_75.ptx:266) add.s32 %r88, %r88, 128;

GPGPU-Sim PTX: 21 (potential) branch divergence @  PC=0x578 (cc_warp.1.sm_75.ptx:260) @%p21 bra $L__BB0_32;

GPGPU-Sim PTX:    immediate post dominator      @  PC=0x590 (cc_warp.1.sm_75.ptx:266) add.s32 %r88, %r88, 128;

GPGPU-Sim PTX: 22 (potential) branch divergence @  PC=0x5a8 (cc_warp.1.sm_75.ptx:269) @%p22 bra $L__BB0_20;

GPGPU-Sim PTX:    immediate post dominator      @  PC=0x5b0 (cc_warp.1.sm_75.ptx:272) add.s32 %r87, %r87, %r7;

GPGPU-Sim PTX: 23 (potential) branch divergence @  PC=0x5c0 (cc_warp.1.sm_75.ptx:274) @%p23 bra $L__BB0_2;

GPGPU-Sim PTX:    immediate post dominator      @  PC=0x5c8 (cc_warp.1.sm_75.ptx:277) ret;

GPGPU-Sim PTX: ... end of reconvergence points for _Z4hookiPKmPKiPiPb
GPGPU-Sim PTX: ... done pre-decoding instructions for '_Z4hookiPKmPKiPiPb'.
GPGPU-Sim PTX: pushing kernel '_Z4hookiPKmPKiPiPb' to stream 0, gridDim= (120,1,1) blockDim = (256,1,1) 
GPGPU-Sim uArch: Shader 0 bind to kernel 1 '_Z4hookiPKmPKiPiPb'
GPGPU-Sim uArch: CTA/core = 4, limited by: threads
GPGPU-Sim: Reconfigure L1 cache to 64KB
GPGPU-Sim uArch: Shader 1 bind to kernel 1 '_Z4hookiPKmPKiPiPb'
GPGPU-Sim uArch: Shader 2 bind to kernel 1 '_Z4hookiPKmPKiPiPb'
GPGPU-Sim uArch: Shader 3 bind to kernel 1 '_Z4hookiPKmPKiPiPb'
GPGPU-Sim uArch: Shader 4 bind to kernel 1 '_Z4hookiPKmPKiPiPb'
GPGPU-Sim uArch: Shader 5 bind to kernel 1 '_Z4hookiPKmPKiPiPb'
GPGPU-Sim uArch: Shader 6 bind to kernel 1 '_Z4hookiPKmPKiPiPb'
GPGPU-Sim uArch: Shader 7 bind to kernel 1 '_Z4hookiPKmPKiPiPb'
GPGPU-Sim uArch: Shader 8 bind to kernel 1 '_Z4hookiPKmPKiPiPb'
GPGPU-Sim uArch: Shader 9 bind to kernel 1 '_Z4hookiPKmPKiPiPb'
GPGPU-Sim uArch: Shader 10 bind to kernel 1 '_Z4hookiPKmPKiPiPb'
GPGPU-Sim uArch: Shader 11 bind to kernel 1 '_Z4hookiPKmPKiPiPb'
GPGPU-Sim uArch: Shader 12 bind to kernel 1 '_Z4hookiPKmPKiPiPb'
GPGPU-Sim uArch: Shader 13 bind to kernel 1 '_Z4hookiPKmPKiPiPb'
GPGPU-Sim uArch: Shader 14 bind to kernel 1 '_Z4hookiPKmPKiPiPb'
GPGPU-Sim uArch: Shader 15 bind to kernel 1 '_Z4hookiPKmPKiPiPb'
GPGPU-Sim uArch: Shader 16 bind to kernel 1 '_Z4hookiPKmPKiPiPb'
GPGPU-Sim uArch: Shader 17 bind to kernel 1 '_Z4hookiPKmPKiPiPb'
GPGPU-Sim uArch: Shader 18 bind to kernel 1 '_Z4hookiPKmPKiPiPb'
GPGPU-Sim uArch: Shader 19 bind to kernel 1 '_Z4hookiPKmPKiPiPb'
GPGPU-Sim uArch: Shader 20 bind to kernel 1 '_Z4hookiPKmPKiPiPb'
GPGPU-Sim uArch: Shader 21 bind to kernel 1 '_Z4hookiPKmPKiPiPb'
GPGPU-Sim uArch: Shader 22 bind to kernel 1 '_Z4hookiPKmPKiPiPb'
GPGPU-Sim uArch: Shader 23 bind to kernel 1 '_Z4hookiPKmPKiPiPb'
GPGPU-Sim uArch: Shader 24 bind to kernel 1 '_Z4hookiPKmPKiPiPb'
GPGPU-Sim uArch: Shader 25 bind to kernel 1 '_Z4hookiPKmPKiPiPb'
GPGPU-Sim uArch: Shader 26 bind to kernel 1 '_Z4hookiPKmPKiPiPb'
GPGPU-Sim uArch: Shader 27 bind to kernel 1 '_Z4hookiPKmPKiPiPb'
GPGPU-Sim uArch: Shader 28 bind to kernel 1 '_Z4hookiPKmPKiPiPb'
GPGPU-Sim uArch: Shader 29 bind to kernel 1 '_Z4hookiPKmPKiPiPb'
Destroy streams for kernel 1: size 0
kernel_name = _Z4hookiPKmPKiPiPb 
kernel_launch_uid = 1 
gpu_sim_cycle = 8720181
gpu_sim_insn = 3465026539
gpu_ipc =     397.3572
gpu_tot_sim_cycle = 8720181
gpu_tot_sim_insn = 3465026539
gpu_tot_ipc =     397.3572
gpu_tot_issued_cta = 120
gpu_occupancy = 99.9926% 
gpu_tot_occupancy = 99.9926% 
max_total_param_size = 0
gpu_stall_dramfull = 0
gpu_stall_icnt2sh    = 0
partiton_level_parallism =       2.8018
partiton_level_parallism_total  =       2.8018
partiton_level_parallism_util =       2.8903
partiton_level_parallism_util_total  =       2.8903
L2_BW  =     122.3829 GB/Sec
L2_BW_total  =     122.3829 GB/Sec
gpu_total_sim_rate=40440

========= Core cache stats =========
L1I_cache:
	L1I_total_cache_accesses = 0
	L1I_total_cache_misses = 0
	L1I_total_cache_pending_hits = 0
	L1I_total_cache_reservation_fails = 0
L1D_cache:
	L1D_cache_core[0]: Access = 2072017, Miss = 361677, Miss_rate = 0.175, Pending_hits = 619274, Reservation_fails = 0
	L1D_cache_core[1]: Access = 2073469, Miss = 362315, Miss_rate = 0.175, Pending_hits = 618910, Reservation_fails = 0
	L1D_cache_core[2]: Access = 2071089, Miss = 362495, Miss_rate = 0.175, Pending_hits = 619705, Reservation_fails = 0
	L1D_cache_core[3]: Access = 2072004, Miss = 362903, Miss_rate = 0.175, Pending_hits = 618736, Reservation_fails = 0
	L1D_cache_core[4]: Access = 2071230, Miss = 362685, Miss_rate = 0.175, Pending_hits = 618741, Reservation_fails = 0
	L1D_cache_core[5]: Access = 2069741, Miss = 361319, Miss_rate = 0.175, Pending_hits = 619286, Reservation_fails = 0
	L1D_cache_core[6]: Access = 2071954, Miss = 362139, Miss_rate = 0.175, Pending_hits = 619183, Reservation_fails = 0
	L1D_cache_core[7]: Access = 2072016, Miss = 361764, Miss_rate = 0.175, Pending_hits = 618820, Reservation_fails = 0
	L1D_cache_core[8]: Access = 2070539, Miss = 362309, Miss_rate = 0.175, Pending_hits = 618838, Reservation_fails = 0
	L1D_cache_core[9]: Access = 2070505, Miss = 362445, Miss_rate = 0.175, Pending_hits = 618868, Reservation_fails = 0
	L1D_cache_core[10]: Access = 2070042, Miss = 362021, Miss_rate = 0.175, Pending_hits = 619237, Reservation_fails = 0
	L1D_cache_core[11]: Access = 2071752, Miss = 362295, Miss_rate = 0.175, Pending_hits = 618509, Reservation_fails = 0
	L1D_cache_core[12]: Access = 2072355, Miss = 362405, Miss_rate = 0.175, Pending_hits = 619885, Reservation_fails = 0
	L1D_cache_core[13]: Access = 2072584, Miss = 361597, Miss_rate = 0.174, Pending_hits = 619659, Reservation_fails = 0
	L1D_cache_core[14]: Access = 2071072, Miss = 362268, Miss_rate = 0.175, Pending_hits = 619535, Reservation_fails = 0
	L1D_cache_core[15]: Access = 2069945, Miss = 361439, Miss_rate = 0.175, Pending_hits = 618997, Reservation_fails = 0
	L1D_cache_core[16]: Access = 2071722, Miss = 361924, Miss_rate = 0.175, Pending_hits = 618952, Reservation_fails = 0
	L1D_cache_core[17]: Access = 2072671, Miss = 362012, Miss_rate = 0.175, Pending_hits = 618835, Reservation_fails = 0
	L1D_cache_core[18]: Access = 2072926, Miss = 361623, Miss_rate = 0.174, Pending_hits = 619520, Reservation_fails = 0
	L1D_cache_core[19]: Access = 2073769, Miss = 362090, Miss_rate = 0.175, Pending_hits = 618833, Reservation_fails = 0
	L1D_cache_core[20]: Access = 2070593, Miss = 361981, Miss_rate = 0.175, Pending_hits = 618389, Reservation_fails = 0
	L1D_cache_core[21]: Access = 2071242, Miss = 362139, Miss_rate = 0.175, Pending_hits = 617484, Reservation_fails = 0
	L1D_cache_core[22]: Access = 2070077, Miss = 362208, Miss_rate = 0.175, Pending_hits = 618872, Reservation_fails = 0
	L1D_cache_core[23]: Access = 2071934, Miss = 362359, Miss_rate = 0.175, Pending_hits = 618596, Reservation_fails = 0
	L1D_cache_core[24]: Access = 2073832, Miss = 362523, Miss_rate = 0.175, Pending_hits = 619447, Reservation_fails = 0
	L1D_cache_core[25]: Access = 2072688, Miss = 362151, Miss_rate = 0.175, Pending_hits = 618338, Reservation_fails = 0
	L1D_cache_core[26]: Access = 2070082, Miss = 361944, Miss_rate = 0.175, Pending_hits = 618584, Reservation_fails = 0
	L1D_cache_core[27]: Access = 2069303, Miss = 362025, Miss_rate = 0.175, Pending_hits = 618860, Reservation_fails = 0
	L1D_cache_core[28]: Access = 2070441, Miss = 361801, Miss_rate = 0.175, Pending_hits = 619443, Reservation_fails = 0
	L1D_cache_core[29]: Access = 2070991, Miss = 361991, Miss_rate = 0.175, Pending_hits = 618598, Reservation_fails = 0
	L1D_total_cache_accesses = 62144585
	L1D_total_cache_misses = 10862847
	L1D_total_cache_miss_rate = 0.1748
	L1D_total_cache_pending_hits = 18568934
	L1D_total_cache_reservation_fails = 0
	L1D_cache_data_port_util = 0.125
	L1D_cache_fill_port_util = 0.042
L1C_cache:
	L1C_total_cache_accesses = 0
	L1C_total_cache_misses = 0
	L1C_total_cache_pending_hits = 0
	L1C_total_cache_reservation_fails = 0
L1T_cache:
	L1T_total_cache_accesses = 0
	L1T_total_cache_misses = 0
	L1T_total_cache_pending_hits = 0
	L1T_total_cache_reservation_fails = 0

Total_core_cache_stats:
	Total_core_cache_stats_breakdown[GLOBAL_ACC_R][HIT] = 19143388
	Total_core_cache_stats_breakdown[GLOBAL_ACC_R][HIT_RESERVED] = 18568934
	Total_core_cache_stats_breakdown[GLOBAL_ACC_R][MISS] = 6353145
	Total_core_cache_stats_breakdown[GLOBAL_ACC_R][RESERVATION_FAIL] = 0
	Total_core_cache_stats_breakdown[GLOBAL_ACC_R][SECTOR_MISS] = 4509672
	Total_core_cache_stats_breakdown[GLOBAL_ACC_R][MSHR_HIT] = 18568934
	Total_core_cache_stats_breakdown[LOCAL_ACC_R][HIT] = 0
	Total_core_cache_stats_breakdown[LOCAL_ACC_R][HIT_RESERVED] = 0
	Total_core_cache_stats_breakdown[LOCAL_ACC_R][MISS] = 0
	Total_core_cache_stats_breakdown[LOCAL_ACC_R][RESERVATION_FAIL] = 0
	Total_core_cache_stats_breakdown[LOCAL_ACC_R][SECTOR_MISS] = 0
	Total_core_cache_stats_breakdown[LOCAL_ACC_R][MSHR_HIT] = 0
	Total_core_cache_stats_breakdown[CONST_ACC_R][HIT] = 0
	Total_core_cache_stats_breakdown[CONST_ACC_R][HIT_RESERVED] = 0
	Total_core_cache_stats_breakdown[CONST_ACC_R][MISS] = 0
	Total_core_cache_stats_breakdown[CONST_ACC_R][RESERVATION_FAIL] = 0
	Total_core_cache_stats_breakdown[CONST_ACC_R][SECTOR_MISS] = 0
	Total_core_cache_stats_breakdown[CONST_ACC_R][MSHR_HIT] = 0
	Total_core_cache_stats_breakdown[TEXTURE_ACC_R][HIT] = 0
	Total_core_cache_stats_breakdown[TEXTURE_ACC_R][HIT_RESERVED] = 0
	Total_core_cache_stats_breakdown[TEXTURE_ACC_R][MISS] = 0
	Total_core_cache_stats_breakdown[TEXTURE_ACC_R][RESERVATION_FAIL] = 0
	Total_core_cache_stats_breakdown[TEXTURE_ACC_R][SECTOR_MISS] = 0
	Total_core_cache_stats_breakdown[TEXTURE_ACC_R][MSHR_HIT] = 0
	Total_core_cache_stats_breakdown[GLOBAL_ACC_W][HIT] = 13569416
	Total_core_cache_stats_breakdown[GLOBAL_ACC_W][HIT_RESERVED] = 0
	Total_core_cache_stats_breakdown[GLOBAL_ACC_W][MISS] = 30
	Total_core_cache_stats_breakdown[GLOBAL_ACC_W][RESERVATION_FAIL] = 0
	Total_core_cache_stats_breakdown[GLOBAL_ACC_W][SECTOR_MISS] = 0
	Total_core_cache_stats_breakdown[GLOBAL_ACC_W][MSHR_HIT] = 0
	Total_core_cache_stats_breakdown[LOCAL_ACC_W][HIT] = 0
	Total_core_cache_stats_breakdown[LOCAL_ACC_W][HIT_RESERVED] = 0
	Total_core_cache_stats_breakdown[LOCAL_ACC_W][MISS] = 0
	Total_core_cache_stats_breakdown[LOCAL_ACC_W][RESERVATION_FAIL] = 0
	Total_core_cache_stats_breakdown[LOCAL_ACC_W][SECTOR_MISS] = 0
	Total_core_cache_stats_breakdown[LOCAL_ACC_W][MSHR_HIT] = 0
	Total_core_cache_stats_breakdown[L1_WRBK_ACC][HIT] = 0
	Total_core_cache_stats_breakdown[L1_WRBK_ACC][HIT_RESERVED] = 0
	Total_core_cache_stats_breakdown[L1_WRBK_ACC][MISS] = 0
	Total_core_cache_stats_breakdown[L1_WRBK_ACC][RESERVATION_FAIL] = 0
	Total_core_cache_stats_breakdown[L1_WRBK_ACC][SECTOR_MISS] = 0
	Total_core_cache_stats_breakdown[L1_WRBK_ACC][MSHR_HIT] = 0
	Total_core_cache_stats_breakdown[L2_WRBK_ACC][HIT] = 0
	Total_core_cache_stats_breakdown[L2_WRBK_ACC][HIT_RESERVED] = 0
	Total_core_cache_stats_breakdown[L2_WRBK_ACC][MISS] = 0
	Total_core_cache_stats_breakdown[L2_WRBK_ACC][RESERVATION_FAIL] = 0
	Total_core_cache_stats_breakdown[L2_WRBK_ACC][SECTOR_MISS] = 0
	Total_core_cache_stats_breakdown[L2_WRBK_ACC][MSHR_HIT] = 0
	Total_core_cache_stats_breakdown[INST_ACC_R][HIT] = 0
	Total_core_cache_stats_breakdown[INST_ACC_R][HIT_RESERVED] = 0
	Total_core_cache_stats_breakdown[INST_ACC_R][MISS] = 0
	Total_core_cache_stats_breakdown[INST_ACC_R][RESERVATION_FAIL] = 0
	Total_core_cache_stats_breakdown[INST_ACC_R][SECTOR_MISS] = 0
	Total_core_cache_stats_breakdown[INST_ACC_R][MSHR_HIT] = 0
	Total_core_cache_stats_breakdown[L1_WR_ALLOC_R][HIT] = 0
	Total_core_cache_stats_breakdown[L1_WR_ALLOC_R][HIT_RESERVED] = 0
	Total_core_cache_stats_breakdown[L1_WR_ALLOC_R][MISS] = 0
	Total_core_cache_stats_breakdown[L1_WR_ALLOC_R][RESERVATION_FAIL] = 0
	Total_core_cache_stats_breakdown[L1_WR_ALLOC_R][SECTOR_MISS] = 0
	Total_core_cache_stats_breakdown[L1_WR_ALLOC_R][MSHR_HIT] = 0
	Total_core_cache_stats_breakdown[L2_WR_ALLOC_R][HIT] = 0
	Total_core_cache_stats_breakdown[L2_WR_ALLOC_R][HIT_RESERVED] = 0
	Total_core_cache_stats_breakdown[L2_WR_ALLOC_R][MISS] = 0
	Total_core_cache_stats_breakdown[L2_WR_ALLOC_R][RESERVATION_FAIL] = 0
	Total_core_cache_stats_breakdown[L2_WR_ALLOC_R][SECTOR_MISS] = 0
	Total_core_cache_stats_breakdown[L2_WR_ALLOC_R][MSHR_HIT] = 0
	Total_core_cache_stats_breakdown[GLOBAL_ACC_R][TOTAL_ACCESS] = 48575139
	Total_core_cache_stats_breakdown[GLOBAL_ACC_W][TOTAL_ACCESS] = 13569446

Total_core_cache_fail_stats:
ctas_completed 120, Shader 0 warp_id issue ditsribution:
warp_id:
0, 1, 2, 3, 4, 5, 6, 7, 8, 9, 10, 11, 12, 13, 14, 15, 16, 17, 18, 19, 20, 21, 22, 23, 24, 25, 26, 27, 28, 29, 30, 31, 
distro:
382956, 384416, 384038, 384066, 384248, 384126, 384628, 382766, 382940, 384242, 384038, 383808, 383992, 383956, 384538, 382794, 382530, 384326, 383926, 383946, 383950, 383766, 384402, 382554, 383412, 384424, 384066, 383994, 384166, 384032, 384448, 382552, 
gpgpu_n_tot_thrd_icount = 11789529728
gpgpu_n_tot_w_icount = 368422804
gpgpu_n_stall_shd_mem = 1379382
gpgpu_n_mem_read_local = 0
gpgpu_n_mem_write_local = 0
gpgpu_n_mem_read_global = 10862817
gpgpu_n_mem_write_global = 13569446
gpgpu_n_mem_texture = 0
gpgpu_n_mem_const = 0
gpgpu_n_load_insn  = 311520313
gpgpu_n_store_insn = 21777980
gpgpu_n_shmem_insn = 510432252
gpgpu_n_sstarr_insn = 0
gpgpu_n_tex_insn = 0
gpgpu_n_const_mem_insn = 0
gpgpu_n_param_mem_insn = 153600
gpgpu_n_shmem_bkconflict = 0
gpgpu_n_cache_bkconflict = 0
gpgpu_n_intrawarp_mshr_merge = 0
gpgpu_n_cmem_portconflict = 0
gpgpu_stall_shd_mem[c_mem][resource_stall] = 0
gpgpu_stall_shd_mem[s_mem][bk_conf] = 0
gpgpu_stall_shd_mem[gl_mem][resource_stall] = 1379237
gpgpu_stall_shd_mem[gl_mem][coal_stall] = 145
gpgpu_stall_shd_mem[gl_mem][data_port_stall] = 0
gpu_reg_bank_conflict_stalls = 0
Warp Occupancy Distribution:
Stall:13189544	W0_Idle:26502	W0_Scoreboard:664126454	W1:25528244	W2:209227423	W3:38108318	W4:2677579	W5:42296	W6:2130	W7:170	W8:60	W9:0	W10:0	W11:0	W12:0	W13:0	W14:0	W15:0	W16:0	W17:0	W18:0	W19:0	W20:0	W21:0	W22:0	W23:0	W24:0	W25:0	W26:0	W27:0	W28:0	W29:0	W30:0	W31:0	W32:92836584
single_issue_nums: WS0:92033570	WS1:92205850	WS2:92214060	WS3:91969324	
dual_issue_nums: WS0:0	WS1:0	WS2:0	WS3:0	
traffic_breakdown_coretomem[GLOBAL_ACC_R] = 86902536 {8:10862817,}
traffic_breakdown_coretomem[GLOBAL_ACC_W] = 542777840 {40:13569446,}
traffic_breakdown_memtocore[GLOBAL_ACC_R] = 434512680 {40:10862817,}
traffic_breakdown_memtocore[GLOBAL_ACC_W] = 108555568 {8:13569446,}
maxmflatency = 1039 
max_icnt2mem_latency = 762 
maxmrqlatency = 190 
max_icnt2sh_latency = 16 
averagemflatency = 273 
avg_icnt2mem_latency = 41 
avg_mrq_latency = 3 
avg_icnt2sh_latency = 2 
mrq_lat_table:5839243 	81617 	150114 	328684 	449380 	153890 	15290 	105 	0 	0 	0 	0 	0 	0 	0 	0 	0 	0 	0 	0 	0 	0 	0 	0 	0 	0 	0 	0 	0 	0 	0 	0 	
dq_lat_table:0 	0 	0 	0 	0 	0 	0 	0 	0 	0 	0 	0 	0 	0 	0 	0 	0 	0 	0 	0 	0 	0 	0 	0 	0 	0 	0 	0 	0 	0 	0 	0 	
mf_lat_table:0 	0 	0 	0 	0 	0 	0 	15288176 	9137671 	6412 	4 	0 	0 	0 	0 	0 	0 	0 	0 	0 	0 	0 	0 	0 	0 	0 	0 	0 	0 	0 	0 	0 	
icnt2mem_lat_table:0 	0 	0 	0 	0 	22758590 	1527563 	140307 	4993 	810 	0 	0 	0 	0 	0 	0 	0 	0 	0 	0 	0 	0 	0 	0 	
icnt2sh_lat_table:0 	23723747 	705589 	2926 	1 	0 	0 	0 	0 	0 	0 	0 	0 	0 	0 	0 	0 	0 	0 	0 	0 	0 	0 	0 	
mf_lat_pw_table:0 	0 	0 	0 	0 	0 	0 	0 	8714 	1 	0 	0 	0 	0 	0 	0 	0 	0 	0 	0 	0 	0 	0 	0 	0 	0 	0 	0 	0 	0 	0 	0 	
maximum concurrent accesses to same row:
dram[0]:        64        64        64        64        64        61        64        62        64        62        64        64        64        64        64        64 
dram[1]:        64        64        64        64        60        64        64        64        64        64        64        64        64        64        63        64 
dram[2]:        64        64        64        64        64        64        63        64        64        59        64        64        64        61        64        56 
dram[3]:        64        64        64        64        64        56        64        53        64        64        64        64        64        64        64        60 
dram[4]:        64        64        64        64        64        64        60        62        59        64        60        64        64        64        64        64 
dram[5]:        64        64        64        64        64        64        64        64        64        64        64        64        64        64        64        64 
dram[6]:        64        64        64        64        64        64        56        63        60        56        64        64        64        60        64        60 
dram[7]:        64        64        64        64        64        64        60        64        64        64        60        64        64        64        64        54 
dram[8]:        64        64        64        64        64        64        63        60        64        64        61        64        55        60        60        60 
dram[9]:        64        64        64        64        60        55        64        64        64        64        64        64        64        64        60        64 
dram[10]:        64        64        64        64        62        64        64        61        56        56        64        60        64        64        64        64 
dram[11]:        64        64        64        64        56        64        64        63        64        59        64        61        64        64        60        56 
maximum service time to same row:
dram[0]:     35111     41362     24048     46468     30901     24436     20321     26224     15256     15467     14236     14973     21206     18407     27837     14216 
dram[1]:     41426     26165     34351     23488     18185     21062     30075     23128     21819     16174     14917     14901     16002     21771     28746     18813 
dram[2]:     41497     41569     47712     47770     23605     29333     32015     24011     15882     16035     16221     13254     13051     12879     28513     13512 
dram[3]:     41788     17636     47897     20133     20884     32482     14532     17590     15441     11989     14324     13968     20239     16695     17973     25258 
dram[4]:     26166     28794     22443     21751     25527     25373     29245     26614     15543     15473     14420     13205     21955     15385     25112     23012 
dram[5]:     41022     41249     21405     46469     28200     27846     11483     15803     14433     12456     15172     15022     21404     21376     28674     23881 
dram[6]:     35520     30855     26857     26232     30402     20724     28991     28247     12551     15230     15156     15297     19945     20338     22187     17865 
dram[7]:     33296     41536     26454     22599     19050     14319     20259     15303     13477     14058     15300     15413     11103     22031     28062     22445 
dram[8]:     26976     22155     48273     48162     34417     18518     17206     28943     16156     16416     15571     13327     13091     17931     19981     28301 
dram[9]:     21069     19928     24767     47746     19646     21179     30478     10780     15215     15254     15696     15443     20163     21603     27006     28597 
dram[10]:     41640     42002     24257     48138     15664     26810     23426     16972     15453     15329     15240     15060     17746     22062     28595     26777 
dram[11]:     33657     41445     36852     19506     17990     33895     30365     27325     16040     14925     15056     15335     22359     17418     17735     12733 
average row accesses per activate:
dram[0]:  2.661153  2.606963  2.646111  2.612938  2.640737  2.696265  2.559465  2.575777  2.490068  2.489001  2.570691  2.566714  2.687675  2.709914  2.779470  2.739944 
dram[1]:  2.676186  2.625466  2.659627  2.671524  2.628238  2.620727  2.582683  2.570560  2.480030  2.527174  2.551344  2.551520  2.656320  2.645446  2.703998  2.676290 
dram[2]:  2.731071  2.679235  2.623200  2.628506  2.665884  2.702840  2.572162  2.574424  2.512846  2.436999  2.528317  2.516743  2.643781  2.650768  2.692472  2.679060 
dram[3]:  2.619095  2.630888  2.628598  2.629972  2.699331  2.690194  2.509583  2.513170  2.460879  2.521627  2.501497  2.512082  2.653225  2.649261  2.682173  2.682603 
dram[4]:  2.637518  2.664602  2.654967  2.638073  2.676153  2.638381  2.557608  2.595726  2.481577  2.510053  2.584855  2.547988  2.673271  2.694298  2.672892  2.687546 
dram[5]:  2.676402  2.638907  2.656157  2.629877  2.626960  2.638613  2.530023  2.564462  2.525423  2.505851  2.552536  2.608538  2.631522  2.635847  2.716737  2.698440 
dram[6]:  2.654005  2.640821  2.674226  2.685710  2.639717  2.663311  2.564311  2.561522  2.533989  2.519186  2.572015  2.543223  2.686931  2.658323  2.675396  2.708762 
dram[7]:  2.636095  2.626267  2.656475  2.651523  2.641347  2.661953  2.572290  2.603404  2.511956  2.502436  2.531317  2.528625  2.707658  2.698544  2.679600  2.618125 
dram[8]:  2.661358  2.680273  2.635050  2.627038  2.618459  2.669456  2.588415  2.567703  2.563443  2.612470  2.591498  2.522937  2.701396  2.687786  2.661273  2.738860 
dram[9]:  2.673796  2.655262  2.627905  2.640783  2.633254  2.606844  2.566778  2.565847  2.510887  2.494369  2.598450  2.563891  2.635613  2.630568  2.648196  2.662379 
dram[10]:  2.678865  2.633517  2.619254  2.615505  2.645436  2.632209  2.601529  2.607960  2.543273  2.577839  2.584266  2.571247  2.677372  2.641099  2.667834  2.676531 
dram[11]:  2.679113  2.662709  2.639784  2.618178  2.625503  2.665111  2.581600  2.562265  2.535127  2.507039  2.569562  2.553332  2.733178  2.708644  2.634392  2.669265 
average row locality = 7018323/2682849 = 2.615996
number of total memory accesses made:
dram[0]:         0         0         0         0         0         0         0         0         0         0         0         0         0         0         0         0 
dram[1]:         0         0         0         0         0         0         0         0         0         0         0         0         0         0         0         0 
dram[2]:         0         0         0         0         0         0         0         0         0         0         0         0         0         0         0         0 
dram[3]:         0         0         0         0         0         0         0         0         0         0         0         0         0         0         0         0 
dram[4]:         0         0         0         0         0         0         0         0         0         0         0         0         0         0         0         0 
dram[5]:         0         0         0         0         0         0         0         0         0         0         0         0         0         0         0         0 
dram[6]:         0         0         0         0         0         0         0         0         0         0         0         0         0         0         0         0 
dram[7]:         0         0         0         0         0         0         0         0         0         0         0         0         0         0         0         0 
dram[8]:         0         0         0         0         0         0         0         0         0         0         0         0         0         0         0         0 
dram[9]:         0         0         0         0         0         0         0         0         0         0         0         0         0         0         0         0 
dram[10]:         0         0         0         0         0         0         0         0         0         0         0         0         0         0         0         0 
dram[11]:         0         0         0         0         0         0         0         0         0         0         0         0         0         0         0         0 
total accesses: 0
min_bank_accesses = 0!
min_chip_accesses = 0!
number of total read accesses:
dram[0]:     32646     32833     32591     32739     32601     32455     32679     32622     32683     32493     32488     32586     32442     32539     32156     32300 
dram[1]:     32525     32678     32471     32627     32744     32739     32645     32650     32552     32473     32551     32550     32661     32754     32511     32599 
dram[2]:     32324     32571     32617     32644     32406     32398     32569     32374     32286     32549     32558     32562     32679     32606     32558     32642 
dram[3]:     32667     32729     32692     32532     32480     32397     32817     32799     32509     32372     32709     32676     32660     32703     32487     32578 
dram[4]:     32601     32630     32524     32539     32522     32628     32553     32574     32582     32439     32575     32639     32622     32465     32452     32431 
dram[5]:     32551     32779     32527     32638     32676     32601     32645     32562     32309     32496     32484     32161     32743     32646     32285     32464 
dram[6]:     32768     32841     32500     32445     32607     32582     32515     32652     32469     32539     32395     32620     32647     32695     32547     32461 
dram[7]:     32653     32815     32489     32491     32612     32532     32646     32424     32503     32536     32636     32795     32494     32367     32512     32757 
dram[8]:     32624     32615     32655     32614     32631     32436     32437     32652     32481     32385     32486     32828     32320     32505     32598     32298 
dram[9]:     32657     32610     32538     32608     32584     32717     32748     32786     32816     32832     32604     32742     32635     32782     32557     32642 
dram[10]:     32541     32716     32822     32790     32686     32699     32676     32603     32635     32496     32644     32494     32528     32685     32583     32558 
dram[11]:     32667     32653     32689     32661     32603     32599     32595     32724     32486     32694     32587     32659     32309     32349     32588     32617 
total dram reads = 6255680
bank skew: 32841/32156 = 1.02
chip skew: 522858/520343 = 1.00
number of total write accesses:
dram[0]:      8397      8476      8484      8554      8498      8375      8639      8585      8432      8439      8332      8492      8533      8571      8304      8332 
dram[1]:      8412      8403      8366      8342      8502      8616      8673      8757      8447      8433      8536      8558      8608      8644      8458      8547 
dram[2]:      8252      8366      8478      8446      8492      8402      8551      8491      8313      8426      8504      8567      8645      8463      8479      8464 
dram[3]:      8460      8440      8508      8361      8366      8426      8711      8682      8454      8298      8539      8546      8498      8535      8397      8464 
dram[4]:      8453      8363      8402      8375      8481      8542      8570      8558      8443      8383      8483      8588      8428      8351      8425      8477 
dram[5]:      8344      8466      8430      8422      8577      8518      8706      8644      8361      8401      8473      8285      8472      8498      8219      8389 
dram[6]:      8480      8415      8382      8292      8475      8487      8578      8587      8405      8490      8450      8706      8469      8579      8415      8362 
dram[7]:      8409      8447      8437      8497      8525      8490      8555      8525      8477      8434      8509      8583      8482      8384      8339      8526 
dram[8]:      8435      8456      8401      8477      8547      8481      8533      8649      8433      8349      8420      8590      8388      8458      8412      8272 
dram[9]:      8423      8395      8459      8417      8517      8603      8561      8653      8654      8653      8489      8522      8567      8591      8473      8496 
dram[10]:      8383      8574      8510      8540      8616      8619      8697      8719      8592      8431      8511      8442      8503      8559      8477      8391 
dram[11]:      8402      8355      8461      8507      8504      8530      8601      8593      8425      8525      8517      8552      8456      8395      8448      8528 
total dram writes = 1628624
bank skew: 8757/8219 = 1.07
chip skew: 136564/135205 = 1.01
average mf latency per bank:
dram[0]:        644       644       642       640       645       648       644       647       649       651       651       648       647       645       649       650
dram[1]:        646       646       646       646       647       645       645       643       650       651       648       648       646       646       647       646
dram[2]:        650       648       644       645       651       651       648       651       656       653       650       650       645       650       648       646
dram[3]:        668       644       667       648       670       649       666       644       673       655       670       646       669       646     39160       648
dram[4]:        646       647       647       647       647       644       648       647       651       652       649       645       650       650       648       649
dram[5]:        647       642       644       642       644       644       645       644       653       649       649       653       647       646       652       648
dram[6]:        641       644       644       647       646       645       646       645       649       648       648       643       646       645       647       650
dram[7]:        646       643       646       647       646       649       646       648       649       653       649       647       651       652       651       646
dram[8]:        648       647       647       646       647       649       650       647       652       655       651       648       654       649       649       653
dram[9]:        643       644       644       645       645       644       645       642       644       644       647       647       648       645       646       646
dram[10]:        647       643       641       640       644       644       643       644       648       651       646       651       650       647       648       649
dram[11]:        644       644       642       641       647       647       647       644       651       646       650       646       651       650       647       643
maximum mf latency per bank:
dram[0]:        863      1010       870       552       840       804       779       752       623       826       879       767       741       824       840       763
dram[1]:        909       874       887       596       871       779       871       807       619       633       845       845       777       880       718       746
dram[2]:        902       913       583       533       937       962       701       578       856       840       858       588       582       586       780       616
dram[3]:        882      1000       573       605       954       911       644       846       811       744       706       677       863       670       964       564
dram[4]:       1035       917       563       547       879       784       617       607       665       609       769       884       770       717       621       584
dram[5]:       1039       909       613       580       744       739       846       798       871       623       701       880       693       648       678       595
dram[6]:        861       977       642       636       845       885       773       600       721       665       923       791       682       586       584       781
dram[7]:       1002       898       620       601       939       937       646       619       669       878       869       822       581       750       809       575
dram[8]:       1010       970       619       620       895       815       769       755       840       784       822       888       615       784       685       636
dram[9]:        955      1033       560       571       691       770       882       842       863       879       851       823       597       735       579       862
dram[10]:        903       860       554       557       844       951       868       687       873       866       862       762       864       710       852       617
dram[11]:       1004      1014       574       564       937       797       612       728       666       653       885       845       779       631       772       655

Number of Memory Banks Accessed per Memory Operation per Warp (from 0):
0	0	0	0	0	0	0	0	0	0	0	0	0	0	0	0	0	0	0	0	0	0	0	0	0	0	0	0	0	0	0	0	0	0	0	0	0	0	0	0	0	0	0	0	0	0	0	0	0	0	0	0	0	0	0	0	0	0	0	0	0	0	0	0	0	0	0	0	0	0	0	0	0	0	0	0	0	0	0	0	0	0	0	0	0	0	0	0	0	0	0	0	0	0	0	0	0	0	0	0	0	0	0	0	0	0	0	0	0	0	0	0	0	0	0	0	0	0	0	0	0	0	0	0	0	0	0	0	0	0	0	0	0	0	0	0	0	0	0	0	0	0	0	0	0	0	0	0	0	0	0	0	0	0	0	0	0	0	0	0	0	0	0	0	0	0	0	0	0	0	0	0	0	0	0	0	0	0	0	0	0	0	0	0	0	0	0	0	0	0	0	0	
Average # of Memory Banks Accessed per Memory Operation per Warp=-nan

position of mrq chosen
0	0	0	0	0	0	0	0	0	0	0	0	0	0	0	0	0	0	0	0	0	0	0	0	0	0	0	0	0	0	0	0	0	0	0	0	0	0	0	0	0	0	0	0	0	0	0	0	0	0	0	0	0	0	0	0	0	0	0	0	0	0	0	0	

average position of mrq chosen = -nan
Memory Partition 0: 
Cache L2_bank_000:
MSHR contents

Cache L2_bank_001:
MSHR contents

In Dram Latency Queue (total = 0): 
DRAM[0]: 16 bks, busW=2 BL=16 CL=24, tRRD=12 tCCD=4, tRCD=24 tRAS=55 tRP=24 tRC=78
n_cmd=22362631 n_nop=21268364 n_act=222582 n_pre=222566 n_ref_event=0 n_req=584110 n_rd=520853 n_rd_L2_A=0 n_write=0 n_wr_bk=135443 bw_util=0.1174
n_activity=14282831 dram_eff=0.1838
bk0: 32646a 21442444i bk1: 32833a 21416921i bk2: 32591a 21435128i bk3: 32739a 21420541i bk4: 32601a 21434909i bk5: 32455a 21457846i bk6: 32679a 21402645i bk7: 32622a 21410997i bk8: 32683a 21377736i bk9: 32493a 21387325i bk10: 32488a 21412371i bk11: 32586a 21405912i bk12: 32442a 21448347i bk13: 32539a 21453348i bk14: 32156a 21488928i bk15: 32300a 21474499i 

------------------------------------------------------------------------

Row_Buffer_Locality = 0.618943
Row_Buffer_Locality_read = 0.687958
Row_Buffer_Locality_write = 0.050682
Bank_Level_Parallism = 1.643096
Bank_Level_Parallism_Col = 1.326078
Bank_Level_Parallism_Ready = 1.046544
write_to_read_ratio_blp_rw_average = 0.293453
GrpLevelPara = 1.239433 

BW Util details:
bwutil = 0.117392 
total_CMD = 22362631 
util_bw = 2625184 
Wasted_Col = 4584559 
Wasted_Row = 2770272 
Idle = 12382616 

BW Util Bottlenecks: 
RCDc_limit = 3379325 
RCDWRc_limit = 681251 
WTRc_limit = 809741 
RTWc_limit = 1181474 
CCDLc_limit = 451735 
rwq = 0 
CCDLc_limit_alone = 364727 
WTRc_limit_alone = 778335 
RTWc_limit_alone = 1125872 

Commands details: 
total_CMD = 22362631 
n_nop = 21268364 
Read = 520853 
Write = 0 
L2_Alloc = 0 
L2_WB = 135443 
n_act = 222582 
n_pre = 222566 
n_ref = 0 
n_req = 584110 
total_req = 656296 

Dual Bus Interface Util: 
issued_total_row = 445148 
issued_total_col = 656296 
Row_Bus_Util =  0.019906 
CoL_Bus_Util = 0.029348 
Either_Row_CoL_Bus_Util = 0.048933 
Issued_on_Two_Bus_Simul_Util = 0.000321 
issued_two_Eff = 0.006559 
queue_avg = 0.209477 


dram_util_bins: 0 0 0 0 0 0 0 0 0 0
dram_eff_bins: 0 0 0 0 0 0 0 0 0 0
mrqq: max=19 avg=0.209477
Memory Partition 1: 
Cache L2_bank_002:
MSHR contents

Cache L2_bank_003:
MSHR contents

In Dram Latency Queue (total = 0): 
DRAM[1]: 16 bks, busW=2 BL=16 CL=24, tRRD=12 tCCD=4, tRCD=24 tRAS=55 tRP=24 tRC=78
n_cmd=22362631 n_nop=21263508 n_act=224169 n_pre=224153 n_ref_event=0 n_req=585685 n_rd=521730 n_rd_L2_A=0 n_write=0 n_wr_bk=136302 bw_util=0.1177
n_activity=14320044 dram_eff=0.1838
bk0: 32525a 21442083i bk1: 32678a 21433198i bk2: 32471a 21444731i bk3: 32627a 21447653i bk4: 32744a 21428480i bk5: 32739a 21419180i bk6: 32645a 21406900i bk7: 32650a 21404283i bk8: 32552a 21375179i bk9: 32473a 21396261i bk10: 32551a 21401493i bk11: 32550a 21403768i bk12: 32661a 21428371i bk13: 32754a 21426651i bk14: 32511a 21456747i bk15: 32599a 21440062i 

------------------------------------------------------------------------

Row_Buffer_Locality = 0.617258
Row_Buffer_Locality_read = 0.686725
Row_Buffer_Locality_write = 0.050567
Bank_Level_Parallism = 1.646593
Bank_Level_Parallism_Col = 1.000000
Bank_Level_Parallism_Ready = 1.046647
write_to_read_ratio_blp_rw_average = 0.000000
GrpLevelPara = 0.000000 

BW Util details:
bwutil = 0.117702 
total_CMD = 22362631 
util_bw = 2632128 
Wasted_Col = 4606731 
Wasted_Row = 2787656 
Idle = 12336116 

BW Util Bottlenecks: 
RCDc_limit = 3397102 
RCDWRc_limit = 687335 
WTRc_limit = 812646 
RTWc_limit = 1193800 
CCDLc_limit = 452926 
rwq = 0 
CCDLc_limit_alone = 364805 
WTRc_limit_alone = 780251 
RTWc_limit_alone = 1138074 

Commands details: 
total_CMD = 22362631 
n_nop = 21263508 
Read = 521730 
Write = 0 
L2_Alloc = 0 
L2_WB = 136302 
n_act = 224169 
n_pre = 224153 
n_ref = 0 
n_req = 585685 
total_req = 658032 

Dual Bus Interface Util: 
issued_total_row = 448322 
issued_total_col = 658032 
Row_Bus_Util =  0.020048 
CoL_Bus_Util = 0.029426 
Either_Row_CoL_Bus_Util = 0.049150 
Issued_on_Two_Bus_Simul_Util = 0.000323 
issued_two_Eff = 0.006579 
queue_avg = 0.212073 


dram_util_bins: 0 0 0 0 0 0 0 0 0 0
dram_eff_bins: 0 0 0 0 0 0 0 0 0 0
mrqq: max=22 avg=0.212073
Memory Partition 2: 
Cache L2_bank_004:
MSHR contents

Cache L2_bank_005:
MSHR contents

In Dram Latency Queue (total = 0): 
DRAM[2]: 16 bks, busW=2 BL=16 CL=24, tRRD=12 tCCD=4, tRCD=24 tRAS=55 tRP=24 tRC=78
n_cmd=22362631 n_nop=21267409 n_act=223397 n_pre=223381 n_ref_event=0 n_req=583582 n_rd=520343 n_rd_L2_A=0 n_write=0 n_wr_bk=135339 bw_util=0.1173
n_activity=14250419 dram_eff=0.184
bk0: 32324a 21472080i bk1: 32571a 21450732i bk2: 32617a 21426271i bk3: 32644a 21425527i bk4: 32406a 21445924i bk5: 32398a 21456294i bk6: 32569a 21410317i bk7: 32374a 21416442i bk8: 32286a 21403662i bk9: 32549a 21362331i bk10: 32558a 21391528i bk11: 32562a 21390081i bk12: 32679a 21421330i bk13: 32606a 21434361i bk14: 32558a 21449381i bk15: 32642a 21445044i 

------------------------------------------------------------------------

Row_Buffer_Locality = 0.617204
Row_Buffer_Locality_read = 0.685930
Row_Buffer_Locality_write = 0.051709
Bank_Level_Parallism = 1.646805
Bank_Level_Parallism_Col = 1.329019
Bank_Level_Parallism_Ready = 1.047452
write_to_read_ratio_blp_rw_average = 0.292630
GrpLevelPara = 1.241688 

BW Util details:
bwutil = 0.117282 
total_CMD = 22362631 
util_bw = 2622728 
Wasted_Col = 4594614 
Wasted_Row = 2772069 
Idle = 12373220 

BW Util Bottlenecks: 
RCDc_limit = 3396265 
RCDWRc_limit = 676423 
WTRc_limit = 816038 
RTWc_limit = 1188779 
CCDLc_limit = 450887 
rwq = 0 
CCDLc_limit_alone = 363696 
WTRc_limit_alone = 784137 
RTWc_limit_alone = 1133489 

Commands details: 
total_CMD = 22362631 
n_nop = 21267409 
Read = 520343 
Write = 0 
L2_Alloc = 0 
L2_WB = 135339 
n_act = 223397 
n_pre = 223381 
n_ref = 0 
n_req = 583582 
total_req = 655682 

Dual Bus Interface Util: 
issued_total_row = 446778 
issued_total_col = 655682 
Row_Bus_Util =  0.019979 
CoL_Bus_Util = 0.029320 
Either_Row_CoL_Bus_Util = 0.048976 
Issued_on_Two_Bus_Simul_Util = 0.000324 
issued_two_Eff = 0.006609 
queue_avg = 0.210407 


dram_util_bins: 0 0 0 0 0 0 0 0 0 0
dram_eff_bins: 0 0 0 0 0 0 0 0 0 0
mrqq: max=16 avg=0.210407
Memory Partition 3: 
Cache L2_bank_006:
MSHR contents

Cache L2_bank_007:
MSHR contents

In Dram Latency Queue (total = 0): 
DRAM[3]: 16 bks, busW=2 BL=16 CL=24, tRRD=12 tCCD=4, tRCD=24 tRAS=55 tRP=24 tRC=78
n_cmd=22362631 n_nop=21261185 n_act=225476 n_pre=225460 n_ref_event=0 n_req=585429 n_rd=521807 n_rd_L2_A=0 n_write=0 n_wr_bk=135685 bw_util=0.1176
n_activity=14380564 dram_eff=0.1829
bk0: 32667a 21425340i bk1: 32729a 21426805i bk2: 32692a 21426547i bk3: 32532a 21435872i bk4: 32480a 21461697i bk5: 32397a 21456062i bk6: 32817a 21377347i bk7: 32799a 21379764i bk8: 32509a 21372555i bk9: 32372a 21402036i bk10: 32709a 21382180i bk11: 32676a 21386634i bk12: 32660a 21433812i bk13: 32703a 21432462i bk14: 32487a 21451657i bk15: 32578a 21450635i 

------------------------------------------------------------------------

Row_Buffer_Locality = 0.614860
Row_Buffer_Locality_read = 0.683699
Row_Buffer_Locality_write = 0.050266
Bank_Level_Parallism = 1.644531
Bank_Level_Parallism_Col = 1.326033
Bank_Level_Parallism_Ready = 1.046333
write_to_read_ratio_blp_rw_average = 0.293341
GrpLevelPara = 1.239565 

BW Util details:
bwutil = 0.117605 
total_CMD = 22362631 
util_bw = 2629968 
Wasted_Col = 4640750 
Wasted_Row = 2802713 
Idle = 12289200 

BW Util Bottlenecks: 
RCDc_limit = 3433288 
RCDWRc_limit = 683412 
WTRc_limit = 827961 
RTWc_limit = 1205580 
CCDLc_limit = 440962 
rwq = 0 
CCDLc_limit_alone = 352296 
WTRc_limit_alone = 795143 
RTWc_limit_alone = 1149732 

Commands details: 
total_CMD = 22362631 
n_nop = 21261185 
Read = 521807 
Write = 0 
L2_Alloc = 0 
L2_WB = 135685 
n_act = 225476 
n_pre = 225460 
n_ref = 0 
n_req = 585429 
total_req = 657492 

Dual Bus Interface Util: 
issued_total_row = 450936 
issued_total_col = 657492 
Row_Bus_Util =  0.020165 
CoL_Bus_Util = 0.029401 
Either_Row_CoL_Bus_Util = 0.049254 
Issued_on_Two_Bus_Simul_Util = 0.000312 
issued_two_Eff = 0.006339 
queue_avg = 0.203051 


dram_util_bins: 0 0 0 0 0 0 0 0 0 0
dram_eff_bins: 0 0 0 0 0 0 0 0 0 0
mrqq: max=16 avg=0.203051
Memory Partition 4: 
Cache L2_bank_008:
MSHR contents

Cache L2_bank_009:
MSHR contents

In Dram Latency Queue (total = 0): 
DRAM[4]: 16 bks, busW=2 BL=16 CL=24, tRRD=12 tCCD=4, tRCD=24 tRAS=55 tRP=24 tRC=78
n_cmd=22362631 n_nop=21267644 n_act=223046 n_pre=223030 n_ref_event=0 n_req=583946 n_rd=520776 n_rd_L2_A=0 n_write=0 n_wr_bk=135322 bw_util=0.1174
n_activity=14241442 dram_eff=0.1843
bk0: 32601a 21429801i bk1: 32630a 21442559i bk2: 32524a 21438884i bk3: 32539a 21432894i bk4: 32522a 21445472i bk5: 32628a 21436884i bk6: 32553a 21405627i bk7: 32574a 21419264i bk8: 32582a 21383915i bk9: 32439a 21398074i bk10: 32575a 21413769i bk11: 32639a 21397149i bk12: 32622a 21443320i bk13: 32465a 21458025i bk14: 32452a 21449413i bk15: 32431a 21452421i 

------------------------------------------------------------------------

Row_Buffer_Locality = 0.618043
Row_Buffer_Locality_read = 0.686781
Row_Buffer_Locality_write = 0.051369
Bank_Level_Parallism = 1.644913
Bank_Level_Parallism_Col = 1.325577
Bank_Level_Parallism_Ready = 1.045433
write_to_read_ratio_blp_rw_average = 0.291982
GrpLevelPara = 1.239170 

BW Util details:
bwutil = 0.117356 
total_CMD = 22362631 
util_bw = 2624392 
Wasted_Col = 4591738 
Wasted_Row = 2761401 
Idle = 12385100 

BW Util Bottlenecks: 
RCDc_limit = 3392768 
RCDWRc_limit = 678315 
WTRc_limit = 811730 
RTWc_limit = 1178003 
CCDLc_limit = 452795 
rwq = 0 
CCDLc_limit_alone = 367032 
WTRc_limit_alone = 780472 
RTWc_limit_alone = 1123498 

Commands details: 
total_CMD = 22362631 
n_nop = 21267644 
Read = 520776 
Write = 0 
L2_Alloc = 0 
L2_WB = 135322 
n_act = 223046 
n_pre = 223030 
n_ref = 0 
n_req = 583946 
total_req = 656098 

Dual Bus Interface Util: 
issued_total_row = 446076 
issued_total_col = 656098 
Row_Bus_Util =  0.019947 
CoL_Bus_Util = 0.029339 
Either_Row_CoL_Bus_Util = 0.048965 
Issued_on_Two_Bus_Simul_Util = 0.000321 
issued_two_Eff = 0.006564 
queue_avg = 0.210018 


dram_util_bins: 0 0 0 0 0 0 0 0 0 0
dram_eff_bins: 0 0 0 0 0 0 0 0 0 0
mrqq: max=19 avg=0.210018
Memory Partition 5: 
Cache L2_bank_010:
MSHR contents

Cache L2_bank_011:
MSHR contents

In Dram Latency Queue (total = 0): 
DRAM[5]: 16 bks, busW=2 BL=16 CL=24, tRRD=12 tCCD=4, tRCD=24 tRAS=55 tRP=24 tRC=78
n_cmd=22362631 n_nop=21267412 n_act=223405 n_pre=223389 n_ref_event=0 n_req=583820 n_rd=520567 n_rd_L2_A=0 n_write=0 n_wr_bk=135205 bw_util=0.1173
n_activity=14277128 dram_eff=0.1837
bk0: 32551a 21444396i bk1: 32779a 21427539i bk2: 32527a 21435199i bk3: 32638a 21429116i bk4: 32676a 21426636i bk5: 32601a 21432264i bk6: 32645a 21393438i bk7: 32562a 21409397i bk8: 32309a 21403860i bk9: 32496a 21393362i bk10: 32484a 21403363i bk11: 32161a 21433203i bk12: 32743a 21423714i bk13: 32646a 21427629i bk14: 32285a 21466524i bk15: 32464a 21454801i 

------------------------------------------------------------------------

Row_Buffer_Locality = 0.617346
Row_Buffer_Locality_read = 0.686087
Row_Buffer_Locality_write = 0.051618
Bank_Level_Parallism = 1.646265
Bank_Level_Parallism_Col = 1.326794
Bank_Level_Parallism_Ready = 1.046373
write_to_read_ratio_blp_rw_average = 0.292423
GrpLevelPara = 1.239053 

BW Util details:
bwutil = 0.117298 
total_CMD = 22362631 
util_bw = 2623088 
Wasted_Col = 4599657 
Wasted_Row = 2774901 
Idle = 12364985 

BW Util Bottlenecks: 
RCDc_limit = 3399443 
RCDWRc_limit = 679449 
WTRc_limit = 808495 
RTWc_limit = 1185403 
CCDLc_limit = 453174 
rwq = 0 
CCDLc_limit_alone = 366717 
WTRc_limit_alone = 776912 
RTWc_limit_alone = 1130529 

[...]
n_nop = 83312826 
Read = 2484110 
Write = 0 
L2_Alloc = 0 
L2_WB = 458761 
n_act = 793911 
n_pre = 793895 
n_ref = 0 
n_req = 2639504 
total_req = 2942871 

Dual Bus Interface Util: 
issued_total_row = 1587806 
issued_total_col = 2942871 
Row_Bus_Util =  0.018083 
CoL_Bus_Util = 0.033515 
Either_Row_CoL_Bus_Util = 0.051178 
Issued_on_Two_Bus_Simul_Util = 0.000420 
issued_two_Eff = 0.008204 
queue_avg = 1.111728 


dram_util_bins: 0 0 0 0 0 0 0 0 0 0
dram_eff_bins: 0 0 0 0 0 0 0 0 0 0
mrqq: max=64 avg=1.11173
Memory Partition 8: 
Cache L2_bank_016:
MSHR contents

Cache L2_bank_017:
MSHR contents

In Dram Latency Queue (total = 0): 
DRAM[8]: 16 bks, busW=2 BL=16 CL=24, tRRD=12 tCCD=4, tRCD=24 tRAS=55 tRP=24 tRC=78
n_cmd=87806634 n_nop=83323493 n_act=789833 n_pre=789817 n_ref_event=0 n_req=2635966 n_rd=2481178 n_rd_L2_A=0 n_write=0 n_wr_bk=458594 bw_util=0.1339
n_activity=55193273 dram_eff=0.2131
bk0: 155552a 83822629i bk1: 155013a 83879860i bk2: 155425a 83823983i bk3: 155118a 83845012i bk4: 155634a 83791072i bk5: 154505a 83904178i bk6: 154674a 83784581i bk7: 155536a 83743986i bk8: 155186a 83706052i bk9: 154511a 83787762i bk10: 155009a 83783050i bk11: 156307a 83676402i bk12: 154197a 83949927i bk13: 154902a 83919150i bk14: 155609a 83832015i bk15: 154000a 83951778i 

------------------------------------------------------------------------

Row_Buffer_Locality = 0.700364
Row_Buffer_Locality_read = 0.728697
Row_Buffer_Locality_write = 0.246208
Bank_Level_Parallism = 1.965031
Bank_Level_Parallism_Col = 1.785913
Bank_Level_Parallism_Ready = 1.208820
write_to_read_ratio_blp_rw_average = 0.182128
GrpLevelPara = 1.461816 

BW Util details:
bwutil = 0.133920 
total_CMD = 87806634 
util_bw = 11759088 
Wasted_Col = 14747201 
Wasted_Row = 9985641 
Idle = 51314704 

BW Util Bottlenecks: 
RCDc_limit = 13259352 
RCDWRc_limit = 1024003 
WTRc_limit = 2024471 
RTWc_limit = 2709605 
CCDLc_limit = 1635309 
rwq = 0 
CCDLc_limit_alone = 1375702 
WTRc_limit_alone = 1920091 
RTWc_limit_alone = 2554378 

Commands details: 
total_CMD = 87806634 
n_nop = 83323493 
Read = 2481178 
Write = 0 
L2_Alloc = 0 
L2_WB = 458594 
n_act = 789833 
n_pre = 789817 
n_ref = 0 
n_req = 2635966 
total_req = 2939772 

Dual Bus Interface Util: 
issued_total_row = 1579650 
issued_total_col = 2939772 
Row_Bus_Util =  0.017990 
CoL_Bus_Util = 0.033480 
Either_Row_CoL_Bus_Util = 0.051057 
Issued_on_Two_Bus_Simul_Util = 0.000413 
issued_two_Eff = 0.008093 
queue_avg = 1.087829 


dram_util_bins: 0 0 0 0 0 0 0 0 0 0
dram_eff_bins: 0 0 0 0 0 0 0 0 0 0
mrqq: max=64 avg=1.08783
Memory Partition 9: 
Cache L2_bank_018:
MSHR contents

Cache L2_bank_019:
MSHR contents

In Dram Latency Queue (total = 0): 
DRAM[9]: 16 bks, busW=2 BL=16 CL=24, tRRD=12 tCCD=4, tRCD=24 tRAS=55 tRP=24 tRC=78
n_cmd=87806634 n_nop=83288298 n_act=801539 n_pre=801523 n_ref_event=0 n_req=2647953 n_rd=2491836 n_rd_L2_A=0 n_write=0 n_wr_bk=460364 bw_util=0.1345
n_activity=55439959 dram_eff=0.213
bk0: 155607a 83792207i bk1: 155321a 83825091i bk2: 154632a 83842649i bk3: 155433a 83806484i bk4: 155146a 83841791i bk5: 155755a 83798108i bk6: 156268a 83696017i bk7: 156153a 83704128i bk8: 156511a 83634220i bk9: 156678a 83573439i bk10: 155548a 83735097i bk11: 156089a 83700105i bk12: 155689a 83792238i bk13: 156287a 83796495i bk14: 155166a 83825003i bk15: 155553a 83830535i 

------------------------------------------------------------------------

Row_Buffer_Locality = 0.697300
Row_Buffer_Locality_read = 0.725860
Row_Buffer_Locality_write = 0.241441
Bank_Level_Parallism = 1.978535
Bank_Level_Parallism_Col = 1.793557
Bank_Level_Parallism_Ready = 1.212098
write_to_read_ratio_blp_rw_average = 0.182096
GrpLevelPara = 1.463764 

BW Util details:
bwutil = 0.134486 
total_CMD = 87806634 
util_bw = 11808800 
Wasted_Col = 14892594 
Wasted_Row = 10062670 
Idle = 51042570 

BW Util Bottlenecks: 
RCDc_limit = 13428635 
RCDWRc_limit = 1036487 
WTRc_limit = 2042438 
RTWc_limit = 2752199 
CCDLc_limit = 1642380 
rwq = 0 
CCDLc_limit_alone = 1377750 
WTRc_limit_alone = 1935134 
RTWc_limit_alone = 2594873 

Commands details: 
total_CMD = 87806634 
n_nop = 83288298 
Read = 2491836 
Write = 0 
L2_Alloc = 0 
L2_WB = 460364 
n_act = 801539 
n_pre = 801523 
n_ref = 0 
n_req = 2647953 
total_req = 2952200 

Dual Bus Interface Util: 
issued_total_row = 1603062 
issued_total_col = 2952200 
Row_Bus_Util =  0.018257 
CoL_Bus_Util = 0.033622 
Either_Row_CoL_Bus_Util = 0.051458 
Issued_on_Two_Bus_Simul_Util = 0.000421 
issued_two_Eff = 0.008172 
queue_avg = 1.105543 


dram_util_bins: 0 0 0 0 0 0 0 0 0 0
dram_eff_bins: 0 0 0 0 0 0 0 0 0 0
mrqq: max=64 avg=1.10554
Memory Partition 10: 
Cache L2_bank_020:
MSHR contents

Cache L2_bank_021:
MSHR contents

In Dram Latency Queue (total = 0): 
DRAM[10]: 16 bks, busW=2 BL=16 CL=24, tRRD=12 tCCD=4, tRCD=24 tRAS=55 tRP=24 tRC=78
n_cmd=87806634 n_nop=83311140 n_act=791935 n_pre=791919 n_ref_event=0 n_req=2643147 n_rd=2487237 n_rd_L2_A=0 n_write=0 n_wr_bk=460165 bw_util=0.1343
n_activity=55100428 dram_eff=0.214
bk0: 155001a 83873527i bk1: 155867a 83801505i bk2: 156222a 83771774i bk3: 155874a 83787354i bk4: 155584a 83853259i bk5: 155602a 83843374i bk6: 155230a 83829080i bk7: 155221a 83800004i bk8: 155842a 83682384i bk9: 155210a 83734319i bk10: 155723a 83754888i bk11: 154998a 83788034i bk12: 154802a 83921936i bk13: 155696a 83866324i bk14: 155237a 83880513i bk15: 155128a 83883376i 

------------------------------------------------------------------------

Row_Buffer_Locality = 0.700383
Row_Buffer_Locality_read = 0.728974
Row_Buffer_Locality_write = 0.244269
Bank_Level_Parallism = 1.966600
Bank_Level_Parallism_Col = 1.782902
Bank_Level_Parallism_Ready = 1.204845
write_to_read_ratio_blp_rw_average = 0.182530
GrpLevelPara = 1.463037 

BW Util details:
bwutil = 0.134268 
total_CMD = 87806634 
util_bw = 11789608 
Wasted_Col = 14771758 
Wasted_Row = 9951969 
Idle = 51293299 

BW Util Bottlenecks: 
RCDc_limit = 13263065 
RCDWRc_limit = 1031222 
WTRc_limit = 2048868 
RTWc_limit = 2706228 
CCDLc_limit = 1652512 
rwq = 0 
CCDLc_limit_alone = 1393469 
WTRc_limit_alone = 1942640 
RTWc_limit_alone = 2553413 

Commands details: 
total_CMD = 87806634 
n_nop = 83311140 
Read = 2487237 
Write = 0 
L2_Alloc = 0 
L2_WB = 460165 
n_act = 791935 
n_pre = 791919 
n_ref = 0 
n_req = 2643147 
total_req = 2947402 

Dual Bus Interface Util: 
issued_total_row = 1583854 
issued_total_col = 2947402 
Row_Bus_Util =  0.018038 
CoL_Bus_Util = 0.033567 
Either_Row_CoL_Bus_Util = 0.051198 
Issued_on_Two_Bus_Simul_Util = 0.000407 
issued_two_Eff = 0.007955 
queue_avg = 1.084530 


dram_util_bins: 0 0 0 0 0 0 0 0 0 0
dram_eff_bins: 0 0 0 0 0 0 0 0 0 0
mrqq: max=64 avg=1.08453
Memory Partition 11: 
Cache L2_bank_022:
MSHR contents

Cache L2_bank_023:
MSHR contents

In Dram Latency Queue (total = 0): 
DRAM[11]: 16 bks, busW=2 BL=16 CL=24, tRRD=12 tCCD=4, tRCD=24 tRAS=55 tRP=24 tRC=78
n_cmd=87806634 n_nop=83319951 n_act=789922 n_pre=789906 n_ref_event=0 n_req=2638241 n_rd=2482975 n_rd_L2_A=0 n_write=0 n_wr_bk=459180 bw_util=0.134
n_activity=54914424 dram_eff=0.2143
bk0: 155492a 83869186i bk1: 155552a 83850201i bk2: 155457a 83819914i bk3: 155456a 83829637i bk4: 155078a 83855825i bk5: 155270a 83866126i bk6: 155067a 83821119i bk7: 155995a 83737156i bk8: 154940a 83721075i bk9: 155784a 83666368i bk10: 155281a 83756081i bk11: 155371a 83764782i bk12: 153722a 84034843i bk13: 154225a 83956977i bk14: 155203a 83874556i bk15: 155082a 83928744i 

------------------------------------------------------------------------

Row_Buffer_Locality = 0.700589
Row_Buffer_Locality_read = 0.728830
Row_Buffer_Locality_write = 0.248966
Bank_Level_Parallism = 1.959571
Bank_Level_Parallism_Col = 1.776566
Bank_Level_Parallism_Ready = 1.202864
write_to_read_ratio_blp_rw_average = 0.182202
GrpLevelPara = 1.461160 

BW Util details:
bwutil = 0.134029 
total_CMD = 87806634 
util_bw = 11768620 
Wasted_Col = 14757477 
Wasted_Row = 9940683 
Idle = 51339854 

BW Util Bottlenecks: 
RCDc_limit = 13250750 
RCDWRc_limit = 1028855 
WTRc_limit = 2031065 
RTWc_limit = 2714340 
CCDLc_limit = 1654052 
rwq = 0 
CCDLc_limit_alone = 1393241 
WTRc_limit_alone = 1925750 
RTWc_limit_alone = 2558844 

Commands details: 
total_CMD = 87806634 
n_nop = 83319951 
Read = 2482975 
Write = 0 
L2_Alloc = 0 
L2_WB = 459180 
n_act = 789922 
n_pre = 789906 
n_ref = 0 
n_req = 2638241 
total_req = 2942155 

Dual Bus Interface Util: 
issued_total_row = 1579828 
issued_total_col = 2942155 
Row_Bus_Util =  0.017992 
CoL_Bus_Util = 0.033507 
Either_Row_CoL_Bus_Util = 0.051097 
Issued_on_Two_Bus_Simul_Util = 0.000402 
issued_two_Eff = 0.007868 
queue_avg = 1.075896 


dram_util_bins: 0 0 0 0 0 0 0 0 0 0
dram_eff_bins: 0 0 0 0 0 0 0 0 0 0
mrqq: max=64 avg=1.0759

========= L2 cache stats =========
L2_cache_bank[0]: Access = 2711957, Miss = 1240333, Miss_rate = 0.457, Pending_hits = 141544, Reservation_fails = 5163
L2_cache_bank[1]: Access = 2713518, Miss = 1241168, Miss_rate = 0.457, Pending_hits = 142558, Reservation_fails = 3388
L2_cache_bank[2]: Access = 2718398, Miss = 1241795, Miss_rate = 0.457, Pending_hits = 141185, Reservation_fails = 5009
L2_cache_bank[3]: Access = 2724253, Miss = 1243765, Miss_rate = 0.457, Pending_hits = 143798, Reservation_fails = 4591
L2_cache_bank[4]: Access = 2688750, Miss = 1239036, Miss_rate = 0.461, Pending_hits = 143287, Reservation_fails = 5711
L2_cache_bank[5]: Access = 2709577, Miss = 1240159, Miss_rate = 0.458, Pending_hits = 142478, Reservation_fails = 4457
L2_cache_bank[6]: Access = 9595242, Miss = 1243955, Miss_rate = 0.130, Pending_hits = 142790, Reservation_fails = 5975
L2_cache_bank[7]: Access = 2707691, Miss = 1242363, Miss_rate = 0.459, Pending_hits = 143166, Reservation_fails = 3094
L2_cache_bank[8]: Access = 2725375, Miss = 1242012, Miss_rate = 0.456, Pending_hits = 141785, Reservation_fails = 6112
L2_cache_bank[9]: Access = 2711957, Miss = 1240398, Miss_rate = 0.457, Pending_hits = 141731, Reservation_fails = 3425
L2_cache_bank[10]: Access = 2711154, Miss = 1240429, Miss_rate = 0.458, Pending_hits = 143139, Reservation_fails = 5292
L2_cache_bank[11]: Access = 2721392, Miss = 1240091, Miss_rate = 0.456, Pending_hits = 140921, Reservation_fails = 5768
L2_cache_bank[12]: Access = 2698228, Miss = 1241247, Miss_rate = 0.460, Pending_hits = 141491, Reservation_fails = 6140
L2_cache_bank[13]: Access = 2717624, Miss = 1243773, Miss_rate = 0.458, Pending_hits = 143731, Reservation_fails = 5310
L2_cache_bank[14]: Access = 2708464, Miss = 1241595, Miss_rate = 0.458, Pending_hits = 142667, Reservation_fails = 3636
L2_cache_bank[15]: Access = 2711093, Miss = 1242516, Miss_rate = 0.458, Pending_hits = 142629, Reservation_fails = 4764
L2_cache_bank[16]: Access = 2716670, Miss = 1241288, Miss_rate = 0.457, Pending_hits = 143275, Reservation_fails = 3994
L2_cache_bank[17]: Access = 2708176, Miss = 1239895, Miss_rate = 0.458, Pending_hits = 143358, Reservation_fails = 5575
L2_cache_bank[18]: Access = 2719366, Miss = 1244568, Miss_rate = 0.458, Pending_hits = 142853, Reservation_fails = 2577
L2_cache_bank[19]: Access = 2732986, Miss = 1247270, Miss_rate = 0.456, Pending_hits = 142897, Reservation_fails = 3929
L2_cache_bank[20]: Access = 2703140, Miss = 1243642, Miss_rate = 0.460, Pending_hits = 141591, Reservation_fails = 4666
L2_cache_bank[21]: Access = 2711705, Miss = 1243597, Miss_rate = 0.459, Pending_hits = 142051, Reservation_fails = 4491
L2_cache_bank[22]: Access = 2705250, Miss = 1240242, Miss_rate = 0.458, Pending_hits = 142571, Reservation_fails = 5586
L2_cache_bank[23]: Access = 2715130, Miss = 1242736, Miss_rate = 0.458, Pending_hits = 141975, Reservation_fails = 4987
L2_total_cache_accesses = 71987096
L2_total_cache_misses = 29807873
L2_total_cache_miss_rate = 0.4141
L2_total_cache_pending_hits = 3419471
L2_total_cache_reservation_fails = 113640
L2_total_cache_breakdown:
	L2_cache_stats_breakdown[GLOBAL_ACC_R][HIT] = 16968616
	L2_cache_stats_breakdown[GLOBAL_ACC_R][HIT_RESERVED] = 3419467
	L2_cache_stats_breakdown[GLOBAL_ACC_R][MISS] = 10617974
	L2_cache_stats_breakdown[GLOBAL_ACC_R][RESERVATION_FAIL] = 113640
	L2_cache_stats_breakdown[GLOBAL_ACC_R][SECTOR_MISS] = 19189846
	L2_cache_stats_breakdown[GLOBAL_ACC_R][MSHR_HIT] = 3419467
	L2_cache_stats_breakdown[LOCAL_ACC_R][HIT] = 0
	L2_cache_stats_breakdown[LOCAL_ACC_R][HIT_RESERVED] = 0
	L2_cache_stats_breakdown[LOCAL_ACC_R][MISS] = 0
	L2_cache_stats_breakdown[LOCAL_ACC_R][RESERVATION_FAIL] = 0
	L2_cache_stats_breakdown[LOCAL_ACC_R][SECTOR_MISS] = 0
	L2_cache_stats_breakdown[LOCAL_ACC_R][MSHR_HIT] = 0
	L2_cache_stats_breakdown[CONST_ACC_R][HIT] = 0
	L2_cache_stats_breakdown[CONST_ACC_R][HIT_RESERVED] = 0
	L2_cache_stats_breakdown[CONST_ACC_R][MISS] = 0
	L2_cache_stats_breakdown[CONST_ACC_R][RESERVATION_FAIL] = 0
	L2_cache_stats_breakdown[CONST_ACC_R][SECTOR_MISS] = 0
	L2_cache_stats_breakdown[CONST_ACC_R][MSHR_HIT] = 0
	L2_cache_stats_breakdown[TEXTURE_ACC_R][HIT] = 0
	L2_cache_stats_breakdown[TEXTURE_ACC_R][HIT_RESERVED] = 0
	L2_cache_stats_breakdown[TEXTURE_ACC_R][MISS] = 0
	L2_cache_stats_breakdown[TEXTURE_ACC_R][RESERVATION_FAIL] = 0
	L2_cache_stats_breakdown[TEXTURE_ACC_R][SECTOR_MISS] = 0
	L2_cache_stats_breakdown[TEXTURE_ACC_R][MSHR_HIT] = 0
	L2_cache_stats_breakdown[GLOBAL_ACC_W][HIT] = 21791136
	L2_cache_stats_breakdown[GLOBAL_ACC_W][HIT_RESERVED] = 4
	L2_cache_stats_breakdown[GLOBAL_ACC_W][MISS] = 43
	L2_cache_stats_breakdown[GLOBAL_ACC_W][RESERVATION_FAIL] = 0
	L2_cache_stats_breakdown[GLOBAL_ACC_W][SECTOR_MISS] = 10
	L2_cache_stats_breakdown[GLOBAL_ACC_W][MSHR_HIT] = 0
	L2_cache_stats_breakdown[LOCAL_ACC_W][HIT] = 0
	L2_cache_stats_breakdown[LOCAL_ACC_W][HIT_RESERVED] = 0
	L2_cache_stats_breakdown[LOCAL_ACC_W][MISS] = 0
	L2_cache_stats_breakdown[LOCAL_ACC_W][RESERVATION_FAIL] = 0
	L2_cache_stats_breakdown[LOCAL_ACC_W][SECTOR_MISS] = 0
	L2_cache_stats_breakdown[LOCAL_ACC_W][MSHR_HIT] = 0
	L2_cache_stats_breakdown[L1_WRBK_ACC][HIT] = 0
	L2_cache_stats_breakdown[L1_WRBK_ACC][HIT_RESERVED] = 0
	L2_cache_stats_breakdown[L1_WRBK_ACC][MISS] = 0
	L2_cache_stats_breakdown[L1_WRBK_ACC][RESERVATION_FAIL] = 0
	L2_cache_stats_breakdown[L1_WRBK_ACC][SECTOR_MISS] = 0
	L2_cache_stats_breakdown[L1_WRBK_ACC][MSHR_HIT] = 0
	L2_cache_stats_breakdown[L2_WRBK_ACC][HIT] = 0
	L2_cache_stats_breakdown[L2_WRBK_ACC][HIT_RESERVED] = 0
	L2_cache_stats_breakdown[L2_WRBK_ACC][MISS] = 0
	L2_cache_stats_breakdown[L2_WRBK_ACC][RESERVATION_FAIL] = 0
	L2_cache_stats_breakdown[L2_WRBK_ACC][SECTOR_MISS] = 0
	L2_cache_stats_breakdown[L2_WRBK_ACC][MSHR_HIT] = 0
	L2_cache_stats_breakdown[INST_ACC_R][HIT] = 0
	L2_cache_stats_breakdown[INST_ACC_R][HIT_RESERVED] = 0
	L2_cache_stats_breakdown[INST_ACC_R][MISS] = 0
	L2_cache_stats_breakdown[INST_ACC_R][RESERVATION_FAIL] = 0
	L2_cache_stats_breakdown[INST_ACC_R][SECTOR_MISS] = 0
	L2_cache_stats_breakdown[INST_ACC_R][MSHR_HIT] = 0
	L2_cache_stats_breakdown[L1_WR_ALLOC_R][HIT] = 0
	L2_cache_stats_breakdown[L1_WR_ALLOC_R][HIT_RESERVED] = 0
	L2_cache_stats_breakdown[L1_WR_ALLOC_R][MISS] = 0
	L2_cache_stats_breakdown[L1_WR_ALLOC_R][RESERVATION_FAIL] = 0
	L2_cache_stats_breakdown[L1_WR_ALLOC_R][SECTOR_MISS] = 0
	L2_cache_stats_breakdown[L1_WR_ALLOC_R][MSHR_HIT] = 0
	L2_cache_stats_breakdown[L2_WR_ALLOC_R][HIT] = 0
	L2_cache_stats_breakdown[L2_WR_ALLOC_R][HIT_RESERVED] = 0
	L2_cache_stats_breakdown[L2_WR_ALLOC_R][MISS] = 0
	L2_cache_stats_breakdown[L2_WR_ALLOC_R][RESERVATION_FAIL] = 0
	L2_cache_stats_breakdown[L2_WR_ALLOC_R][SECTOR_MISS] = 0
	L2_cache_stats_breakdown[L2_WR_ALLOC_R][MSHR_HIT] = 0
	L2_cache_stats_breakdown[GLOBAL_ACC_R][TOTAL_ACCESS] = 50195903
	L2_cache_stats_breakdown[GLOBAL_ACC_W][TOTAL_ACCESS] = 21791193
L2_total_cache_reservation_fail_breakdown:
	L2_cache_stats_fail_breakdown[GLOBAL_ACC_R][MSHR_MERGE_ENRTY_FAIL] = 113640
L2_cache_data_port_util = 0.047
L2_cache_fill_port_util = 0.036

icnt_total_pkts_mem_to_simt=71987096
icnt_total_pkts_simt_to_mem=71987096
LD_mem_lat_dist  0 0 0 0 0 0 0 0 0 0 0 0 0 0 0 0 0 0 0 0 0 0 0 0 0 0 0
ST_mem_lat_dist  0 0 0 0 0 0 0 0 0 0 0 0 0 0 0 0 0 0 0 0 0 0 0 0 0 0 0
----------------------------Interconnect-DETAILS--------------------------------
Req_Network_injected_packets_num = 71987096
Req_Network_cycles = 34239702
Req_Network_injected_packets_per_cycle =       2.1024 
Req_Network_conflicts_per_cycle =       1.1843
Req_Network_conflicts_per_cycle_util =       1.4369
Req_Bank_Level_Parallism =       2.5507
Req_Network_in_buffer_full_per_cycle =       0.0000
Req_Network_in_buffer_avg_util =       0.3238
Req_Network_out_buffer_full_per_cycle =       0.0000
Req_Network_out_buffer_avg_util =       0.0887

Reply_Network_injected_packets_num = 71987096
Reply_Network_cycles = 34239702
Reply_Network_injected_packets_per_cycle =        2.1024
Reply_Network_conflicts_per_cycle =        0.3140
Reply_Network_conflicts_per_cycle_util =       0.3781
Reply_Bank_Level_Parallism =       2.5317
Reply_Network_in_buffer_full_per_cycle =       0.0000
Reply_Network_in_buffer_avg_util =       0.0721
Reply_Network_out_buffer_full_per_cycle =       0.0000
Reply_Network_out_buffer_avg_util =       0.0701
----------------------------END-of-Interconnect-DETAILS-------------------------


gpgpu_simulation_time = 3 days, 20 hrs, 34 min, 8 sec (333248 sec)
gpgpu_simulation_rate = 42925 (inst/sec)
gpgpu_simulation_rate = 102 (cycle/sec)
gpgpu_silicon_slowdown = 13382352x
GPGPU-Sim PTX: Setting up arguments for 4 bytes starting at 0x7ffc7215982c..
GPGPU-Sim PTX: Setting up arguments for 8 bytes starting at 0x7ffc72159820..
GPGPU-Sim PTX: Setting up arguments for 8 bytes starting at 0x7ffc72159818..
GPGPU-Sim PTX: Setting up arguments for 8 bytes starting at 0x7ffc72159810..
GPGPU-Sim PTX: Setting up arguments for 8 bytes starting at 0x7ffc72159808..

GPGPU-Sim PTX: cudaLaunch for 0x0x557116c8fd90 (mode=performance simulation) on stream 0
GPGPU-Sim PTX: PDOM analysis already done for _Z4hookiPKmPKiPiPb 
GPGPU-Sim PTX: pushing kernel '_Z4hookiPKmPKiPiPb' to stream 0, gridDim= (120,1,1) blockDim = (256,1,1) 
GPGPU-Sim uArch: Shader 22 bind to kernel 9 '_Z4hookiPKmPKiPiPb'
GPGPU-Sim uArch: CTA/core = 4, limited by: threads
GPGPU-Sim: Reconfigure L1 cache to 64KB
GPGPU-Sim uArch: Shader 23 bind to kernel 9 '_Z4hookiPKmPKiPiPb'
GPGPU-Sim uArch: Shader 24 bind to kernel 9 '_Z4hookiPKmPKiPiPb'
GPGPU-Sim uArch: Shader 25 bind to kernel 9 '_Z4hookiPKmPKiPiPb'
GPGPU-Sim uArch: Shader 26 bind to kernel 9 '_Z4hookiPKmPKiPiPb'
GPGPU-Sim uArch: Shader 27 bind to kernel 9 '_Z4hookiPKmPKiPiPb'
GPGPU-Sim uArch: Shader 28 bind to kernel 9 '_Z4hookiPKmPKiPiPb'
GPGPU-Sim uArch: Shader 29 bind to kernel 9 '_Z4hookiPKmPKiPiPb'
GPGPU-Sim uArch: Shader 0 bind to kernel 9 '_Z4hookiPKmPKiPiPb'
GPGPU-Sim uArch: Shader 1 bind to kernel 9 '_Z4hookiPKmPKiPiPb'
GPGPU-Sim uArch: Shader 2 bind to kernel 9 '_Z4hookiPKmPKiPiPb'
GPGPU-Sim uArch: Shader 3 bind to kernel 9 '_Z4hookiPKmPKiPiPb'
GPGPU-Sim uArch: Shader 4 bind to kernel 9 '_Z4hookiPKmPKiPiPb'
GPGPU-Sim uArch: Shader 5 bind to kernel 9 '_Z4hookiPKmPKiPiPb'
GPGPU-Sim uArch: Shader 6 bind to kernel 9 '_Z4hookiPKmPKiPiPb'
GPGPU-Sim uArch: Shader 7 bind to kernel 9 '_Z4hookiPKmPKiPiPb'
GPGPU-Sim uArch: Shader 8 bind to kernel 9 '_Z4hookiPKmPKiPiPb'
GPGPU-Sim uArch: Shader 9 bind to kernel 9 '_Z4hookiPKmPKiPiPb'
GPGPU-Sim uArch: Shader 10 bind to kernel 9 '_Z4hookiPKmPKiPiPb'
GPGPU-Sim uArch: Shader 11 bind to kernel 9 '_Z4hookiPKmPKiPiPb'
GPGPU-Sim uArch: Shader 12 bind to kernel 9 '_Z4hookiPKmPKiPiPb'
GPGPU-Sim uArch: Shader 13 bind to kernel 9 '_Z4hookiPKmPKiPiPb'
GPGPU-Sim uArch: Shader 14 bind to kernel 9 '_Z4hookiPKmPKiPiPb'
GPGPU-Sim uArch: Shader 15 bind to kernel 9 '_Z4hookiPKmPKiPiPb'
GPGPU-Sim uArch: Shader 16 bind to kernel 9 '_Z4hookiPKmPKiPiPb'
GPGPU-Sim uArch: Shader 17 bind to kernel 9 '_Z4hookiPKmPKiPiPb'
GPGPU-Sim uArch: Shader 18 bind to kernel 9 '_Z4hookiPKmPKiPiPb'
GPGPU-Sim uArch: Shader 19 bind to kernel 9 '_Z4hookiPKmPKiPiPb'
GPGPU-Sim uArch: Shader 20 bind to kernel 9 '_Z4hookiPKmPKiPiPb'
GPGPU-Sim uArch: Shader 21 bind to kernel 9 '_Z4hookiPKmPKiPiPb'
