

        *** GPGPU-Sim Simulator Version 4.2.0  [build gpgpu-sim_git-commit-5e9d31b8132651796656877ecb58fde27177ba7a_modified_303.0] ***


GPGPU-Sim PTX: simulation mode 0 (can change with PTX_SIM_MODE_FUNC environment variable:
               1=functional simulation only, 0=detailed performance simulator)
GPGPU-Sim PTX: overriding embedded ptx with ptx file (PTX_SIM_USE_PTX_FILE is set)
GPGPU-Sim: Configuration options:

-save_embedded_ptx                      0 # saves ptx files embedded in binary as <n>.ptx
-keep                                   0 # keep intermediate files created by GPGPU-Sim when interfacing with external programs
-gpgpu_ptx_save_converted_ptxplus                    0 # Saved converted ptxplus to a file
-gpgpu_occupancy_sm_number                   75 # The SM number to pass to ptxas when getting register usage for computing GPU occupancy. This parameter is required in the config.
-ptx_opcode_latency_int           4,4,4,4,21 # Opcode latencies for integers <ADD,MAX,MUL,MAD,DIV,SHFL>Default 1,1,19,25,145,32
-ptx_opcode_latency_fp           4,4,4,4,39 # Opcode latencies for single precision floating points <ADD,MAX,MUL,MAD,DIV>Default 1,1,1,1,30
-ptx_opcode_latency_dp      64,64,64,64,330 # Opcode latencies for double precision floating points <ADD,MAX,MUL,MAD,DIV>Default 8,8,8,8,335
-ptx_opcode_latency_sfu                   21 # Opcode latencies for SFU instructionsDefault 8
-ptx_opcode_latency_tesnor                   64 # Opcode latencies for Tensor instructionsDefault 64
-ptx_opcode_initiation_int            2,2,2,2,2 # Opcode initiation intervals for integers <ADD,MAX,MUL,MAD,DIV,SHFL>Default 1,1,4,4,32,4
-ptx_opcode_initiation_fp            2,2,2,2,4 # Opcode initiation intervals for single precision floating points <ADD,MAX,MUL,MAD,DIV>Default 1,1,1,1,5
-ptx_opcode_initiation_dp      64,64,64,64,130 # Opcode initiation intervals for double precision floating points <ADD,MAX,MUL,MAD,DIV>Default 8,8,8,8,130
-ptx_opcode_initiation_sfu                    8 # Opcode initiation intervals for sfu instructionsDefault 8
-ptx_opcode_initiation_tensor                   64 # Opcode initiation intervals for tensor instructionsDefault 64
-cdp_latency         7200,8000,100,12000,1600 # CDP API latency <cudaStreamCreateWithFlags, cudaGetParameterBufferV2_init_perWarp, cudaGetParameterBufferV2_perKernel, cudaLaunchDeviceV2_init_perWarp, cudaLaunchDevicV2_perKernel>Default 7200,8000,100,12000,1600
-network_mode                           2 # Interconnection network mode
-inter_config_file                   mesh # Interconnection network config file
-icnt_in_buffer_limit                  512 # in_buffer_limit
-icnt_out_buffer_limit                  512 # out_buffer_limit
-icnt_subnets                           2 # subnets
-icnt_arbiter_algo                      1 # arbiter_algo
-icnt_verbose                           0 # inct_verbose
-icnt_grant_cycles                      1 # grant_cycles
-gpgpu_ptx_use_cuobjdump                    1 # Use cuobjdump to extract ptx and sass from binaries
-gpgpu_experimental_lib_support                    0 # Try to extract code from cuda libraries [Broken because of unknown cudaGetExportTable]
-checkpoint_option                      0 #  checkpointing flag (0 = no checkpoint)
-checkpoint_kernel                      1 #  checkpointing during execution of which kernel (1- 1st kernel)
-checkpoint_CTA                         0 #  checkpointing after # of CTA (< less than total CTA)
-resume_option                          0 #  resume flag (0 = no resume)
-resume_kernel                          0 #  Resume from which kernel (1= 1st kernel)
-resume_CTA                             0 #  resume from which CTA 
-checkpoint_CTA_t                       0 #  resume from which CTA 
-checkpoint_insn_Y                      0 #  resume from which CTA 
-gpgpu_ptx_convert_to_ptxplus                    0 # Convert SASS (native ISA) to ptxplus and run ptxplus
-gpgpu_ptx_force_max_capability                   75 # Force maximum compute capability
-gpgpu_ptx_inst_debug_to_file                    0 # Dump executed instructions' debug information to file
-gpgpu_ptx_inst_debug_file       inst_debug.txt # Executed instructions' debug output file
-gpgpu_ptx_inst_debug_thread_uid                    1 # Thread UID for executed instructions' debug output
-gpgpu_simd_model                       1 # 1 = post-dominator
-gpgpu_shader_core_pipeline              1024:32 # shader core pipeline config, i.e., {<nthread>:<warpsize>}
-gpgpu_tex_cache:l1  N:4:128:256,L:R:m:N:L,T:512:8,128:2 # per-shader L1 texture cache  (READ-ONLY) config  {<nsets>:<bsize>:<assoc>,<rep>:<wr>:<alloc>:<wr_alloc>,<mshr>:<N>:<merge>,<mq>:<rf>}
-gpgpu_const_cache:l1 N:128:64:8,L:R:f:N:L,S:2:64,4 # per-shader L1 constant memory cache  (READ-ONLY) config  {<nsets>:<bsize>:<assoc>,<rep>:<wr>:<alloc>:<wr_alloc>,<mshr>:<N>:<merge>,<mq>} 
-gpgpu_cache:il1     N:64:128:16,L:R:f:N:L,S:2:48,4 # shader L1 instruction cache config  {<nsets>:<bsize>:<assoc>,<rep>:<wr>:<alloc>:<wr_alloc>,<mshr>:<N>:<merge>,<mq>} 
-gpgpu_cache:dl1     S:4:128:64,L:T:m:L:L,A:256:32,16:0,32 # per-shader L1 data cache config  {<nsets>:<bsize>:<assoc>,<rep>:<wr>:<alloc>:<wr_alloc>,<mshr>:<N>:<merge>,<mq> | none}
-gpgpu_l1_cache_write_ratio                   25 # L1D write ratio
-gpgpu_l1_banks                         4 # The number of L1 cache banks
-gpgpu_l1_banks_byte_interleaving                   32 # l1 banks byte interleaving granularity
-gpgpu_l1_banks_hashing_function                    0 # l1 banks hashing function
-gpgpu_l1_latency                      32 # L1 Hit Latency
-gpgpu_smem_latency                    30 # smem Latency
-gpgpu_cache:dl1PrefL1                 none # per-shader L1 data cache config  {<nsets>:<bsize>:<assoc>,<rep>:<wr>:<alloc>:<wr_alloc>,<mshr>:<N>:<merge>,<mq> | none}
-gpgpu_cache:dl1PrefShared                 none # per-shader L1 data cache config  {<nsets>:<bsize>:<assoc>,<rep>:<wr>:<alloc>:<wr_alloc>,<mshr>:<N>:<merge>,<mq> | none}
-gpgpu_gmem_skip_L1D                    0 # global memory access skip L1D cache (implements -Xptxas -dlcm=cg, default=no skip)
-gpgpu_perfect_mem                      0 # enable perfect memory mode (no cache miss)
-n_regfile_gating_group                    4 # group of lanes that should be read/written together)
-gpgpu_clock_gated_reg_file                    0 # enable clock gated reg file for power calculations
-gpgpu_clock_gated_lanes                    0 # enable clock gated lanes for power calculations
-gpgpu_shader_registers                65536 # Number of registers per shader core. Limits number of concurrent CTAs. (default 8192)
-gpgpu_registers_per_block                65536 # Maximum number of registers per CTA. (default 8192)
-gpgpu_ignore_resources_limitation                    0 # gpgpu_ignore_resources_limitation (default 0)
-gpgpu_shader_cta                      16 # Maximum number of concurrent CTAs in shader (default 32)
-gpgpu_num_cta_barriers                   16 # Maximum number of named barriers per CTA (default 16)
-gpgpu_n_clusters                      30 # number of processing clusters
-gpgpu_n_cores_per_cluster                    1 # number of simd cores per cluster
-gpgpu_n_cluster_ejection_buffer_size                   32 # number of packets in ejection buffer
-gpgpu_n_ldst_response_buffer_size                    2 # number of response packets in ld/st unit ejection buffer
-gpgpu_shmem_per_block                49152 # Size of shared memory per thread block or CTA (default 48kB)
-gpgpu_shmem_size                   65536 # Size of shared memory per shader core (default 16kB)
-gpgpu_shmem_option                 32,64 # Option list of shared memory sizes
-gpgpu_unified_l1d_size                   96 # Size of unified data cache(L1D + shared memory) in KB
-gpgpu_adaptive_cache_config                    1 # adaptive_cache_config
-gpgpu_shmem_sizeDefault                65536 # Size of shared memory per shader core (default 16kB)
-gpgpu_shmem_size_PrefL1                16384 # Size of shared memory per shader core (default 16kB)
-gpgpu_shmem_size_PrefShared                16384 # Size of shared memory per shader core (default 16kB)
-gpgpu_shmem_num_banks                   32 # Number of banks in the shared memory in each shader core (default 16)
-gpgpu_shmem_limited_broadcast                    0 # Limit shared memory to do one broadcast per cycle (default on)
-gpgpu_shmem_warp_parts                    1 # Number of portions a warp is divided into for shared memory bank conflict check 
-gpgpu_mem_unit_ports                    1 # The number of memory transactions allowed per core cycle
-gpgpu_shmem_warp_parts                    1 # Number of portions a warp is divided into for shared memory bank conflict check 
-gpgpu_warpdistro_shader                   -1 # Specify which shader core to collect the warp size distribution from
-gpgpu_warp_issue_shader                    0 # Specify which shader core to collect the warp issue distribution from
-gpgpu_local_mem_map                    1 # Mapping from local memory space address to simulated GPU physical address space (default = enabled)
-gpgpu_num_reg_banks                    8 # Number of register banks (default = 8)
-gpgpu_reg_bank_use_warp_id                    0 # Use warp ID in mapping registers to banks (default = off)
-gpgpu_sub_core_model                    1 # Sub Core Volta/Pascal model (default = off)
-gpgpu_enable_specialized_operand_collector                    0 # enable_specialized_operand_collector
-gpgpu_operand_collector_num_units_sp                    4 # number of collector units (default = 4)
-gpgpu_operand_collector_num_units_dp                    0 # number of collector units (default = 0)
-gpgpu_operand_collector_num_units_sfu                    4 # number of collector units (default = 4)
-gpgpu_operand_collector_num_units_int                    0 # number of collector units (default = 0)
-gpgpu_operand_collector_num_units_tensor_core                    4 # number of collector units (default = 4)
-gpgpu_operand_collector_num_units_mem                    2 # number of collector units (default = 2)
-gpgpu_operand_collector_num_units_gen                    8 # number of collector units (default = 0)
-gpgpu_operand_collector_num_in_ports_sp                    1 # number of collector unit in ports (default = 1)
-gpgpu_operand_collector_num_in_ports_dp                    0 # number of collector unit in ports (default = 0)
-gpgpu_operand_collector_num_in_ports_sfu                    1 # number of collector unit in ports (default = 1)
-gpgpu_operand_collector_num_in_ports_int                    0 # number of collector unit in ports (default = 0)
-gpgpu_operand_collector_num_in_ports_tensor_core                    1 # number of collector unit in ports (default = 1)
-gpgpu_operand_collector_num_in_ports_mem                    1 # number of collector unit in ports (default = 1)
-gpgpu_operand_collector_num_in_ports_gen                    8 # number of collector unit in ports (default = 0)
-gpgpu_operand_collector_num_out_ports_sp                    1 # number of collector unit in ports (default = 1)
-gpgpu_operand_collector_num_out_ports_dp                    0 # number of collector unit in ports (default = 0)
-gpgpu_operand_collector_num_out_ports_sfu                    1 # number of collector unit in ports (default = 1)
-gpgpu_operand_collector_num_out_ports_int                    0 # number of collector unit in ports (default = 0)
-gpgpu_operand_collector_num_out_ports_tensor_core                    1 # number of collector unit in ports (default = 1)
-gpgpu_operand_collector_num_out_ports_mem                    1 # number of collector unit in ports (default = 1)
-gpgpu_operand_collector_num_out_ports_gen                    8 # number of collector unit in ports (default = 0)
-gpgpu_coalesce_arch                   75 # Coalescing arch (GT200 = 13, Fermi = 20)
-gpgpu_num_sched_per_core                    4 # Number of warp schedulers per core
-gpgpu_max_insn_issue_per_warp                    1 # Max number of instructions that can be issued per warp in one cycle by scheduler (either 1 or 2)
-gpgpu_dual_issue_diff_exec_units                    1 # should dual issue use two different execution unit resources (Default = 1)
-gpgpu_simt_core_sim_order                    1 # Select the simulation order of cores in a cluster (0=Fix, 1=Round-Robin)
-gpgpu_pipeline_widths 4,4,4,4,4,4,4,4,4,4,8,4,4 # Pipeline widths ID_OC_SP,ID_OC_DP,ID_OC_INT,ID_OC_SFU,ID_OC_MEM,OC_EX_SP,OC_EX_DP,OC_EX_INT,OC_EX_SFU,OC_EX_MEM,EX_WB,ID_OC_TENSOR_CORE,OC_EX_TENSOR_CORE
-gpgpu_tensor_core_avail                    1 # Tensor Core Available (default=0)
-gpgpu_num_sp_units                     4 # Number of SP units (default=1)
-gpgpu_num_dp_units                     4 # Number of DP units (default=0)
-gpgpu_num_int_units                    4 # Number of INT units (default=0)
-gpgpu_num_sfu_units                    4 # Number of SF units (default=1)
-gpgpu_num_tensor_core_units                    4 # Number of tensor_core units (default=1)
-gpgpu_num_mem_units                    1 # Number if ldst units (default=1) WARNING: not hooked up to anything
-kernelBased                            0 # Does the approximator work as kernel based (default = 0)
-kernelId                               0 # Kernel ids where the approximation applied 
-hybridApproximation                    0 # Hybrid approximator (default = 0)
-errorPercentage                       50 # Error percentage (number of max flushed accesses)
-l1dApproximator                        0 # Memory access delete unit (default = 0)
-l1dSlicingAccessInterval                 5000 # Slice access window length (default = 1000)
-l2Approximator                         0 # Memory access delete unit (default = 0)
-l2SlicingAccessInterval                 5000 # Slice access window length (default = 1000)
-smOccupancy                            0 # sm occupancy (default = 0)
-smSlicingInterval                   5000 # Slice access window length (default = 1000)
-gpgpu_scheduler                      lrr # Scheduler configuration: < lrr | gto | two_level_active > If two_level_active:<num_active_warps>:<inner_prioritization>:<outer_prioritization>For complete list of prioritization values see shader.h enum scheduler_prioritization_typeDefault: gto
-gpgpu_concurrent_kernel_sm                    0 # Support concurrent kernels on a SM (default = disabled)
-gpgpu_perfect_inst_const_cache                    1 # perfect inst and const cache mode, so all inst and const hits in the cache(default = disabled)
-gpgpu_inst_fetch_throughput                    4 # the number of fetched intruction per warp each cycle
-gpgpu_reg_file_port_throughput                    2 # the number ports of the register file
-specialized_unit_1         0,4,4,4,4,BRA # specialized unit config {<enabled>,<num_units>:<latency>:<initiation>,<ID_OC_SPEC>:<OC_EX_SPEC>,<NAME>}
-specialized_unit_2         0,4,4,4,4,BRA # specialized unit config {<enabled>,<num_units>:<latency>:<initiation>,<ID_OC_SPEC>:<OC_EX_SPEC>,<NAME>}
-specialized_unit_3         0,4,4,4,4,BRA # specialized unit config {<enabled>,<num_units>:<latency>:<initiation>,<ID_OC_SPEC>:<OC_EX_SPEC>,<NAME>}
-specialized_unit_4         0,4,4,4,4,BRA # specialized unit config {<enabled>,<num_units>:<latency>:<initiation>,<ID_OC_SPEC>:<OC_EX_SPEC>,<NAME>}
-specialized_unit_5         0,4,4,4,4,BRA # specialized unit config {<enabled>,<num_units>:<latency>:<initiation>,<ID_OC_SPEC>:<OC_EX_SPEC>,<NAME>}
-specialized_unit_6         0,4,4,4,4,BRA # specialized unit config {<enabled>,<num_units>:<latency>:<initiation>,<ID_OC_SPEC>:<OC_EX_SPEC>,<NAME>}
-specialized_unit_7         0,4,4,4,4,BRA # specialized unit config {<enabled>,<num_units>:<latency>:<initiation>,<ID_OC_SPEC>:<OC_EX_SPEC>,<NAME>}
-specialized_unit_8         0,4,4,4,4,BRA # specialized unit config {<enabled>,<num_units>:<latency>:<initiation>,<ID_OC_SPEC>:<OC_EX_SPEC>,<NAME>}
-gpgpu_perf_sim_memcpy                    1 # Fill the L2 cache on memcpy
-gpgpu_simple_dram_model                    0 # simple_dram_model with fixed latency and BW
-gpgpu_dram_scheduler                    1 # 0 = fifo, 1 = FR-FCFS (defaul)
-gpgpu_dram_partition_queues          64:64:64:64 # i2$:$2d:d2$:$2i
-l2_ideal                               0 # Use a ideal L2 cache that always hit
-gpgpu_cache:dl2     S:64:128:16,L:B:m:L:P,A:192:4,32:0,32 # unified banked L2 data cache config  {<nsets>:<bsize>:<assoc>,<rep>:<wr>:<alloc>:<wr_alloc>,<mshr>:<N>:<merge>,<mq>}
-gpgpu_cache:dl2_texture_only                    0 # L2 cache used for texture only
-gpgpu_n_mem                           12 # number of memory modules (e.g. memory controllers) in gpu
-gpgpu_n_sub_partition_per_mchannel                    2 # number of memory subpartition in each memory module
-gpgpu_n_mem_per_ctrlr                    1 # number of memory chips per memory controller
-gpgpu_memlatency_stat                   14 # track and display latency statistics 0x2 enables MC, 0x4 enables queue logs
-gpgpu_frfcfs_dram_sched_queue_size                   64 # 0 = unlimited (default); # entries per chip
-gpgpu_dram_return_queue_size                  192 # 0 = unlimited (default); # entries per chip
-gpgpu_dram_buswidth                    2 # default = 4 bytes (8 bytes per cycle at DDR)
-gpgpu_dram_burst_length                   16 # Burst length of each DRAM request (default = 4 data bus cycle)
-dram_data_command_freq_ratio                    4 # Frequency ratio between DRAM data bus and command bus (default = 2 times, i.e. DDR)
-gpgpu_dram_timing_opt nbk=16:CCD=4:RRD=12:RCD=24:RAS=55:RP=24:RC=78:CL=24:WL=8:CDLR=10:WR=24:nbkgrp=4:CCDL=6:RTPL=4 # DRAM timing parameters = {nbk:tCCD:tRRD:tRCD:tRAS:tRP:tRC:CL:WL:tCDLR:tWR:nbkgrp:tCCDL:tRTPL}
-gpgpu_l2_rop_latency                  194 # ROP queue latency (default 85)
-dram_latency                          96 # DRAM latency (default 30)
-dram_dual_bus_interface                    0 # dual_bus_interface (default = 0) 
-dram_bnk_indexing_policy                    0 # dram_bnk_indexing_policy (0 = normal indexing, 1 = Xoring with the higher bits) (Default = 0)
-dram_bnkgrp_indexing_policy                    1 # dram_bnkgrp_indexing_policy (0 = take higher bits, 1 = take lower bits) (Default = 0)
-dram_seperate_write_queue_enable                    0 # Seperate_Write_Queue_Enable
-dram_write_queue_size             32:28:16 # Write_Queue_Size
-dram_elimnate_rw_turnaround                    0 # elimnate_rw_turnaround i.e set tWTR and tRTW = 0
-icnt_flit_size                        40 # icnt_flit_size
-icnt_flit_size                        40 # icnt_flit_size
-mem_profiler                           0 # memory access runtime profiling (0 = not enabled)
-gpgpu_mem_addr_mapping dramid@8;00000000.00000000.00000000.00000000.0000RRRR.RRRRRRRR.RBBBCCCC.BCCSSSSS # mapping memory address to dram model {dramid@<start bit>;<memory address map>}
-gpgpu_mem_addr_test                    0 # run sweep test to check address mapping for aliased address
-gpgpu_mem_address_mask                    1 # 0 = old addressing mask, 1 = new addressing mask, 2 = new add. mask + flipped bank sel and chip sel bits
-gpgpu_memory_partition_indexing                    0 # 0 = no indexing, 1 = bitwise xoring, 2 = IPoly, 3 = custom indexing
-accelwattch_xml_file accelwattch_sass_sim.xml # AccelWattch XML file
-power_simulation_enabled                    1 # Turn on power simulator (1=On, 0=Off)
-power_per_cycle_dump                    1 # Dump detailed power output each cycle
-hw_perf_file_name            hw_perf.csv # Hardware Performance Statistics file
-hw_perf_bench_name    hw_perf_bench_name # Kernel Name in Hardware Performance Statistics file
-power_simulation_mode                    0 # Switch performance counter input for power simulation (0=Sim, 1=HW, 2=HW-Sim Hybrid)
-dvfs_enabled                           1 # Turn on DVFS for power model
-aggregate_power_stats                    0 # Accumulate power across all kernels
-accelwattch_hybrid_perfsim_L1_RH                    0 # Get L1 Read Hits for Accelwattch-Hybrid from Accel-Sim
-accelwattch_hybrid_perfsim_L1_RM                    0 # Get L1 Read Misses for Accelwattch-Hybrid from Accel-Sim
-accelwattch_hybrid_perfsim_L1_WH                    0 # Get L1 Write Hits for Accelwattch-Hybrid from Accel-Sim
-accelwattch_hybrid_perfsim_L1_WM                    0 # Get L1 Write Misses for Accelwattch-Hybrid from Accel-Sim
-accelwattch_hybrid_perfsim_L2_RH                    0 # Get L2 Read Hits for Accelwattch-Hybrid from Accel-Sim
-accelwattch_hybrid_perfsim_L2_RM                    0 # Get L2 Read Misses for Accelwattch-Hybrid from Accel-Sim
-accelwattch_hybrid_perfsim_L2_WH                    0 # Get L2 Write Hits for Accelwattch-Hybrid from Accel-Sim
-accelwattch_hybrid_perfsim_L2_WM                    0 # Get L2 Write Misses for Accelwattch-Hybrid from Accel-Sim
-accelwattch_hybrid_perfsim_CC_ACC                    0 # Get Constant Cache Acesses for Accelwattch-Hybrid from Accel-Sim
-accelwattch_hybrid_perfsim_SHARED_ACC                    0 # Get Shared Memory Acesses for Accelwattch-Hybrid from Accel-Sim
-accelwattch_hybrid_perfsim_DRAM_RD                    0 # Get DRAM Reads for Accelwattch-Hybrid from Accel-Sim
-accelwattch_hybrid_perfsim_DRAM_WR                    0 # Get DRAM Writes for Accelwattch-Hybrid from Accel-Sim
-accelwattch_hybrid_perfsim_NOC                    0 # Get Interconnect Acesses for Accelwattch-Hybrid from Accel-Sim
-accelwattch_hybrid_perfsim_PIPE_DUTY                    0 # Get Pipeline Duty Cycle Acesses for Accelwattch-Hybrid from Accel-Sim
-accelwattch_hybrid_perfsim_NUM_SM_IDLE                    0 # Get Number of Idle SMs for Accelwattch-Hybrid from Accel-Sim
-accelwattch_hybrid_perfsim_CYCLES                    0 # Get Executed Cycles for Accelwattch-Hybrid from Accel-Sim
-accelwattch_hybrid_perfsim_VOLTAGE                    0 # Get Chip Voltage for Accelwattch-Hybrid from Accel-Sim
-power_trace_enabled                    0 # produce a file for the power trace (1=On, 0=Off)
-power_trace_zlevel                     0 # Compression level of the power trace output log (0=no comp, 9=highest)
-steady_power_levels_enabled                    0 # produce a file for the steady power levels (1=On, 0=Off)
-steady_state_definition                  8:4 # allowed deviation:number of samples
-gpgpu_max_cycle                        0 # terminates gpu simulation early (0 = no limit)
-gpgpu_max_insn                         0 # terminates gpu simulation early (0 = no limit)
-gpgpu_max_cta                          0 # terminates gpu simulation early (0 = no limit)
-gpgpu_max_completed_cta                    0 # terminates gpu simulation early (0 = no limit)
-gpgpu_runtime_stat                  1000 # display runtime statistics such as dram utilization {<freq>:<flag>}
-liveness_message_freq                    1 # Minimum number of seconds between simulation liveness messages (0 = always print)
-gpgpu_compute_capability_major                    7 # Major compute capability version number
-gpgpu_compute_capability_minor                    5 # Minor compute capability version number
-gpgpu_flush_l1_cache                    1 # Flush L1 cache at the end of each kernel call
-gpgpu_flush_l2_cache                    0 # Flush L2 cache at the end of each kernel call
-gpgpu_deadlock_detect                    1 # Stop the simulation at deadlock (1=on (default), 0=off)
-gpgpu_ptx_instruction_classification                    0 # if enabled will classify ptx instruction types per kernel (Max 255 kernels now)
-gpgpu_ptx_sim_mode                     0 # Select between Performance (default) or Functional simulation (1)
-gpgpu_clock_domains 1365:1365:1365:3500.5 # Clock Domain Frequencies in MhZ {<Core Clock>:<ICNT Clock>:<L2 Clock>:<DRAM Clock>}
-gpgpu_max_concurrent_kernel                  128 # maximum kernels that can run concurrently on GPU, set this value according to max resident grids for your compute capability
-gpgpu_cflog_interval                    0 # Interval between each snapshot in control flow logger
-visualizer_enabled                     0 # Turn on visualizer output (1=On, 0=Off)
-visualizer_outputfile                 NULL # Specifies the output log file for visualizer
-visualizer_zlevel                      6 # Compression level of the visualizer output log (0=no comp, 9=highest)
-gpgpu_stack_size_limit                 1024 # GPU thread stack size
-gpgpu_heap_size_limit              8388608 # GPU malloc heap size 
-gpgpu_runtime_sync_depth_limit                    2 # GPU device runtime synchronize depth
-gpgpu_runtime_pending_launch_count_limit                 2048 # GPU device runtime pending launch count
-trace_enabled                          0 # Turn on traces
-trace_components                    none # comma seperated list of traces to enable. Complete list found in trace_streams.tup. Default none
-trace_sampling_core                    0 # The core which is printed using CORE_DPRINTF. Default 0
-trace_sampling_memory_partition                   -1 # The memory partition which is printed using MEMPART_DPRINTF. Default -1 (i.e. all)
-enable_ptx_file_line_stats                    1 # Turn on PTX source line statistic profiling. (1 = On)
-ptx_line_stats_filename gpgpu_inst_stats.txt # Output file for PTX source line statistics.
-gpgpu_kernel_launch_latency                 5000 # Kernel launch latency in cycles. Default: 0
-gpgpu_cdp_enabled                      0 # Turn on CDP
-gpgpu_TB_launch_latency                    0 # thread block launch latency in cycles. Default: 0
-mem_runtime_stat                     100 # memory access runtime profiling sampling freq
-L1D_metrics                            0 # memory access runtime profiling for L1 data cache
-noncoal_metrics                        0 # memory access runtime profiling for shared memory
-L2_metrics                             0 # memory access runtime profiling for L2 cache
-DRAM_metrics                           0 # memory access runtime profiling for DRAM
-Shmem_metrics                          0 # memory access runtime profiling for noncoalesced accesses
-store_enable                           0 # Enable stores for memory profiling
-accumulate_stats                       0 # Accumulate stats for the memory profiling
-dump_enable                            0 # Process dump enable flag - (def = 0)
-flush_l1d                              0 # Enable flushings for L1D caches - (default = 0)
-flush_l2                               0 # Enable flushings for L2 caches - (default = 0)
-flush_dram                             0 # Enable flushings for DRAM - (default = 0)
-flush_noncoalesceds                    0 # Enable flushings for non coalesced accesses - (default = 0)
-flush_shmems                           0 # Enable flushings for shared memory accesses - (default = 0)
-error_percentage                       2 # Error percentage for the flushes - (default = 1)
-flush_acc_type                         2 # Flush access types
-monitor_sampling_cycle                  200 # Monitoring sampling cycle - (default = 5000)
DRAM Timing Options:
nbk                                    16 # number of banks
CCD                                     4 # column to column delay
RRD                                    12 # minimal delay between activation of rows in different banks
RCD                                    24 # row to column delay
RAS                                    55 # time needed to activate row
RP                                     24 # time needed to precharge (deactivate) row
RC                                     78 # row cycle time
CDLR                                   10 # switching from write to read (changes tWTR)
WR                                     24 # last data-in to row precharge
CL                                     24 # CAS latency
WL                                      8 # Write latency
nbkgrp                                  4 # number of bank groups
CCDL                                    6 # column to column delay between accesses to different bank groups
RTPL                                    4 # read to precharge delay between accesses to different bank groups
Total number of memory sub partition = 24
addr_dec_mask[CHIP]  = 0000000000000000 	high:64 low:0
addr_dec_mask[BK]    = 0000000000007080 	high:15 low:7
addr_dec_mask[ROW]   = 000000000fff8000 	high:28 low:15
addr_dec_mask[COL]   = 0000000000000f7f 	high:12 low:0
addr_dec_mask[BURST] = 000000000000001f 	high:5 low:0
sub_partition_id_mask = 0000000000000080
GPGPU-Sim uArch: clock freqs: 1365000000.000000:1365000000.000000:1365000000.000000:3500500000.000000
GPGPU-Sim uArch: clock periods: 0.00000000073260073260:0.00000000073260073260:0.00000000073260073260:0.00000000028567347522
*** Initializing Memory Statistics ***
GPGPU-Sim uArch: performance model initialization complete.
Paral6a9db41cf3f8496fb5b06301bea99cf4  /home/pars/Documents/expSetups/a2/pathfinder
Extracting PTX file and ptxas options    1: pathfinder.1.sm_75.ptx -arch=sm_75
lel calisiyor
self exe links to: /home/pars/Documents/expSetups/a2/pathfinder
self exe links to: /home/pars/Documents/expSetups/a2/pathfinder
11.0
GPGPU-Sim PTX: __cudaRegisterFatBinary, fat_cubin_handle = 1, filename=default
self exe links to: /home/pars/Documents/expSetups/a2/pathfinder
Running md5sum using "md5sum /home/pars/Documents/expSetups/a2/pathfinder "
self exe links to: /home/pars/Documents/expSetups/a2/pathfinder
Extracting specific PTX file named pathfinder.1.sm_75.ptx 
GPGPU-Sim PTX: __cudaRegisterFunction _Z14dynproc_kerneliPiS_S_iiii : hostFun 0x0x558aec462b8f, fat_cubin_handle = 1
GPGPU-Sim PTX: Parsing pathfinder.1.sm_75.ptx
GPGPU-Sim PTX: allocating shared region for "_ZZ14dynproc_kerneliPiS_S_iiiiE4prev" from 0x0 to 0x400 (shared memory space)
GPGPU-Sim PTX: allocating shared region for "_ZZ14dynproc_kerneliPiS_S_iiiiE6result" from 0x400 to 0x800 (shared memory space)
GPGPU-Sim PTX: instruction assembly for function '_Z14dynproc_kerneliPiS_S_iiii'...   done.
GPGPU-Sim PTX: finished parsing EMBEDDED .ptx file pathfinder.1.sm_75.ptx
GPGPU-Sim PTX: loading globals with explicit initializers... 
GPGPU-Sim PTX: finished loading globals (0 bytes total).
GPGPU-Sim PTX: loading constants with explicit initializers...  done.
GPGPU-Sim PTX: Loading PTXInfo from pathfinder.1.sm_75.ptx
GPGPU-Sim PTX: Kernel '_Z14dynproc_kerneliPiS_S_iiii' : regs=18, lmem=0, smem=2048, cmem=400
pyramidHeight: 50
gridSize: [500000]
border:[50]
blockSize: 256
blockGrid:[3206]
targetBlock:[156]
GPGPU-Sim PTX: Setting up arguments for 4 bytes starting at 0x7ffe5fc675dc..
GPGPU-Sim PTX: Setting up arguments for 8 bytes starting at 0x7ffe5fc675d0..
GPGPU-Sim PTX: Setting up arguments for 8 bytes starting at 0x7ffe5fc675c8..
GPGPU-Sim PTX: Setting up arguments for 8 bytes starting at 0x7ffe5fc675c0..
GPGPU-Sim PTX: Setting up arguments for 4 bytes starting at 0x7ffe5fc675d8..
GPGPU-Sim PTX: Setting up arguments for 4 bytes starting at 0x7ffe5fc675bc..
GPGPU-Sim PTX: Setting up arguments for 4 bytes starting at 0x7ffe5fc67670..
GPGPU-Sim PTX: Setting up arguments for 4 bytes starting at 0x7ffe5fc67678..

GPGPU-Sim PTX: cudaLaunch for 0x0x558aec462b8f (mode=performance simulation) on stream 0
GPGPU-Sim PTX: finding reconvergence points for '_Z14dynproc_kerneliPiS_S_iiii'...
GPGPU-Sim PTX: Finding dominators for '_Z14dynproc_kerneliPiS_S_iiii'...
GPGPU-Sim PTX: Finding immediate dominators for '_Z14dynproc_kerneliPiS_S_iiii'...
GPGPU-Sim PTX: Finding postdominators for '_Z14dynproc_kerneliPiS_S_iiii'...
GPGPU-Sim PTX: Finding immediate postdominators for '_Z14dynproc_kerneliPiS_S_iiii'...
GPGPU-Sim PTX: pre-decoding instructions for '_Z14dynproc_kerneliPiS_S_iiii'...
GPGPU-Sim PTX: reconvergence points for _Z14dynproc_kerneliPiS_S_iiii...
GPGPU-Sim PTX:  1 (potential) branch divergence @  PC=0x0a8 (pathfinder.1.sm_75.ptx:58) @%p4 bra $L__BB0_2;
GPGPU-Sim PTX:    immediate post dominator      @  PC=0x0d8 (pathfinder.1.sm_75.ptx:67) bar.sync 0;
GPGPU-Sim PTX:  2 (potential) branch divergence @  PC=0x0f8 (pathfinder.1.sm_75.ptx:71) @%p5 bra $L__BB0_10;
GPGPU-Sim PTX:    immediate post dominator      @  PC=0x2f0 (pathfinder.1.sm_75.ptx:146) and.b16 %rs6, %rs8, 255;
GPGPU-Sim PTX:  3 (potential) branch divergence @  PC=0x228 (pathfinder.1.sm_75.ptx:112) @%p13 bra $L__BB0_6;
GPGPU-Sim PTX:    immediate post dominator      @  PC=0x288 (pathfinder.1.sm_75.ptx:127) bar.sync 0;
GPGPU-Sim PTX:  4 (potential) branch divergence @  PC=0x298 (pathfinder.1.sm_75.ptx:129) @%p14 bra $L__BB0_10;
GPGPU-Sim PTX:    immediate post dominator      @  PC=0x2f0 (pathfinder.1.sm_75.ptx:146) and.b16 %rs6, %rs8, 255;
GPGPU-Sim PTX:  5 (potential) branch divergence @  PC=0x2a8 (pathfinder.1.sm_75.ptx:132) @%p15 bra $L__BB0_9;
GPGPU-Sim PTX:    immediate post dominator      @  PC=0x2c0 (pathfinder.1.sm_75.ptx:138) bar.sync 0;
GPGPU-Sim PTX:  6 (potential) branch divergence @  PC=0x2e8 (pathfinder.1.sm_75.ptx:143) @%p16 bra $L__BB0_4;
GPGPU-Sim PTX:    immediate post dominator      @  PC=0x2f0 (pathfinder.1.sm_75.ptx:146) and.b16 %rs6, %rs8, 255;
GPGPU-Sim PTX:  7 (potential) branch divergence @  PC=0x300 (pathfinder.1.sm_75.ptx:148) @%p17 bra $L__BB0_12;
GPGPU-Sim PTX:    immediate post dominator      @  PC=0x330 (pathfinder.1.sm_75.ptx:157) ret;
GPGPU-Sim PTX: ... end of reconvergence points for _Z14dynproc_kerneliPiS_S_iiii
GPGPU-Sim PTX: ... done pre-decoding instructions for '_Z14dynproc_kerneliPiS_S_iiii'.
GPGPU-Sim PTX: pushing kernel '_Z14dynproc_kerneliPiS_S_iiii' to stream 0, gridDim= (3206,1,1) blockDim = (256,1,1) 
GPGPU-Sim uArch: Shader 0 bind to kernel 1 '_Z14dynproc_kerneliPiS_S_iiii'
GPGPU-Sim uArch: CTA/core = 4, limited by: threads
GPGPU-Sim: Reconfigure L1 cache to 64KB
GPGPU-Sim uArch: Shader 1 bind to kernel 1 '_Z14dynproc_kerneliPiS_S_iiii'
GPGPU-Sim uArch: Shader 2 bind to kernel 1 '_Z14dynproc_kerneliPiS_S_iiii'
GPGPU-Sim uArch: Shader 3 bind to kernel 1 '_Z14dynproc_kerneliPiS_S_iiii'
GPGPU-Sim uArch: Shader 4 bind to kernel 1 '_Z14dynproc_kerneliPiS_S_iiii'
GPGPU-Sim uArch: Shader 5 bind to kernel 1 '_Z14dynproc_kerneliPiS_S_iiii'
GPGPU-Sim uArch: Shader 6 bind to kernel 1 '_Z14dynproc_kerneliPiS_S_iiii'
GPGPU-Sim uArch: Shader 7 bind to kernel 1 '_Z14dynproc_kerneliPiS_S_iiii'
GPGPU-Sim uArch: Shader 8 bind to kernel 1 '_Z14dynproc_kerneliPiS_S_iiii'
GPGPU-Sim uArch: Shader 9 bind to kernel 1 '_Z14dynproc_kerneliPiS_S_iiii'
GPGPU-Sim uArch: Shader 10 bind to kernel 1 '_Z14dynproc_kerneliPiS_S_iiii'
GPGPU-Sim uArch: Shader 11 bind to kernel 1 '_Z14dynproc_kerneliPiS_S_iiii'
GPGPU-Sim uArch: Shader 12 bind to kernel 1 '_Z14dynproc_kerneliPiS_S_iiii'
GPGPU-Sim uArch: Shader 13 bind to kernel 1 '_Z14dynproc_kerneliPiS_S_iiii'
GPGPU-Sim uArch: Shader 14 bind to kernel 1 '_Z14dynproc_kerneliPiS_S_iiii'
GPGPU-Sim uArch: Shader 15 bind to kernel 1 '_Z14dynproc_kerneliPiS_S_iiii'
GPGPU-Sim uArch: Shader 16 bind to kernel 1 '_Z14dynproc_kerneliPiS_S_iiii'
GPGPU-Sim uArch: Shader 17 bind to kernel 1 '_Z14dynproc_kerneliPiS_S_iiii'
GPGPU-Sim uArch: Shader 18 bind to kernel 1 '_Z14dynproc_kerneliPiS_S_iiii'
GPGPU-Sim uArch: Shader 19 bind to kernel 1 '_Z14dynproc_kerneliPiS_S_iiii'
GPGPU-Sim uArch: Shader 20 bind to kernel 1 '_Z14dynproc_kerneliPiS_S_iiii'
GPGPU-Sim uArch: Shader 21 bind to kernel 1 '_Z14dynproc_kerneliPiS_S_iiii'
GPGPU-Sim uArch: Shader 22 bind to kernel 1 '_Z14dynproc_kerneliPiS_S_iiii'
GPGPU-Sim uArch: Shader 23 bind to kernel 1 '_Z14dynproc_kerneliPiS_S_iiii'
GPGPU-Sim uArch: Shader 24 bind to kernel 1 '_Z14dynproc_kerneliPiS_S_iiii'
GPGPU-Sim uArch: Shader 25 bind to kernel 1 '_Z14dynproc_kerneliPiS_S_iiii'
GPGPU-Sim uArch: Shader 26 bind to kernel 1 '_Z14dynproc_kerneliPiS_S_iiii'
GPGPU-Sim uArch: Shader 27 bind to kernel 1 '_Z14dynproc_kerneliPiS_S_iiii'
GPGPU-Sim uArch: Shader 28 bind to kernel 1 '_Z14dynproc_kerneliPiS_S_iiii'
GPGPU-Sim uArch: Shader 29 bind to kernel 1 '_Z14dynproc_kerneliPiS_S_iiii'
Simulation cycle for kernel 0 is = 10000
Simulation cycle for kernel 0 is = 15000
Simulation cycle for kernel 0 is = 20000
Simulation cycle for kernel 0 is = 25000
Simulation cycle for kernel 0 is = 30000
Simulation cycle for kernel 0 is = 35000
Simulation cycle for kernel 0 is = 40000
Simulation cycle for kernel 0 is = 45000
Simulation cycle for kernel 0 is = 50000
Simulation cycle for kernel 0 is = 55000
Simulation cycle for kernel 0 is = 60000
Simulation cycle for kernel 0 is = 65000
Simulation cycle for kernel 0 is = 70000
Simulation cycle for kernel 0 is = 75000
Simulation cycle for kernel 0 is = 80000
Simulation cycle for kernel 0 is = 85000
Simulation cycle for kernel 0 is = 90000
Simulation cycle for kernel 0 is = 95000
Simulation cycle for kernel 0 is = 100000
Simulation cycle for kernel 0 is = 105000
Simulation cycle for kernel 0 is = 110000
Simulation cycle for kernel 0 is = 115000
Simulation cycle for kernel 0 is = 120000
Simulation cycle for kernel 0 is = 125000
Simulation cycle for kernel 0 is = 130000
Simulation cycle for kernel 0 is = 135000
Simulation cycle for kernel 0 is = 140000
Simulation cycle for kernel 0 is = 145000
Simulation cycle for kernel 0 is = 150000
Simulation cycle for kernel 0 is = 155000
Simulation cycle for kernel 0 is = 160000
Simulation cycle for kernel 0 is = 165000
Simulation cycle for kernel 0 is = 170000
Simulation cycle for kernel 0 is = 175000
Simulation cycle for kernel 0 is = 180000
Simulation cycle for kernel 0 is = 185000
Simulation cycle for kernel 0 is = 190000
Simulation cycle for kernel 0 is = 195000
Simulation cycle for kernel 0 is = 200000
Simulation cycle for kernel 0 is = 205000
Simulation cycle for kernel 0 is = 210000
Simulation cycle for kernel 0 is = 215000
Simulation cycle for kernel 0 is = 220000
Simulation cycle for kernel 0 is = 225000
Simulation cycle for kernel 0 is = 230000
Simulation cycle for kernel 0 is = 235000
Simulation cycle for kernel 0 is = 240000
Simulation cycle for kernel 0 is = 245000
Simulation cycle for kernel 0 is = 250000
Simulation cycle for kernel 0 is = 255000
Simulation cycle for kernel 0 is = 260000
Simulation cycle for kernel 0 is = 265000
Simulation cycle for kernel 0 is = 270000
Simulation cycle for kernel 0 is = 275000
Simulation cycle for kernel 0 is = 280000
Simulation cycle for kernel 0 is = 285000
Simulation cycle for kernel 0 is = 290000
Simulation cycle for kernel 0 is = 295000
Simulation cycle for kernel 0 is = 300000
Simulation cycle for kernel 0 is = 305000
Simulation cycle for kernel 0 is = 310000
Simulation cycle for kernel 0 is = 315000
Simulation cycle for kernel 0 is = 320000
Simulation cycle for kernel 0 is = 325000
Simulation cycle for kernel 0 is = 330000
Simulation cycle for kernel 0 is = 335000
Simulation cycle for kernel 0 is = 340000
Simulation cycle for kernel 0 is = 345000
Simulation cycle for kernel 0 is = 350000
Simulation cycle for kernel 0 is = 355000
Simulation cycle for kernel 0 is = 360000
Simulation cycle for kernel 0 is = 365000
Simulation cycle for kernel 0 is = 370000
Simulation cycle for kernel 0 is = 375000
Simulation cycle for kernel 0 is = 380000
Simulation cycle for kernel 0 is = 385000
Simulation cycle for kernel 0 is = 390000
Simulation cycle for kernel 0 is = 395000
Simulation cycle for kernel 0 is = 400000
Simulation cycle for kernel 0 is = 405000
Simulation cycle for kernel 0 is = 410000
Simulation cycle for kernel 0 is = 415000
Simulation cycle for kernel 0 is = 420000
Simulation cycle for kernel 0 is = 425000
Simulation cycle for kernel 0 is = 430000
Simulation cycle for kernel 0 is = 435000
Simulation cycle for kernel 0 is = 440000
Simulation cycle for kernel 0 is = 445000
Simulation cycle for kernel 0 is = 450000
Simulation cycle for kernel 0 is = 455000
Simulation cycle for kernel 0 is = 460000
Simulation cycle for kernel 0 is = 465000
Simulation cycle for kernel 0 is = 470000
Simulation cycle for kernel 0 is = 475000
Simulation cycle for kernel 0 is = 480000
Simulation cycle for kernel 0 is = 485000
Simulation cycle for kernel 0 is = 490000
Simulation cycle for kernel 0 is = 495000
Simulation cycle for kernel 0 is = 500000
Simulation cycle for kernel 0 is = 505000
Simulation cycle for kernel 0 is = 510000
Simulation cycle for kernel 0 is = 515000
Simulation cycle for kernel 0 is = 520000
Simulation cycle for kernel 0 is = 525000
Simulation cycle for kernel 0 is = 530000
Simulation cycle for kernel 0 is = 535000
Simulation cycle for kernel 0 is = 540000
Simulation cycle for kernel 0 is = 545000
Simulation cycle for kernel 0 is = 550000
Simulation cycle for kernel 0 is = 555000
Simulation cycle for kernel 0 is = 560000
Simulation cycle for kernel 0 is = 565000
Simulation cycle for kernel 0 is = 570000
Simulation cycle for kernel 0 is = 575000
Simulation cycle for kernel 0 is = 580000
Simulation cycle for kernel 0 is = 585000
Simulation cycle for kernel 0 is = 590000
Simulation cycle for kernel 0 is = 595000
Simulation cycle for kernel 0 is = 600000
Simulation cycle for kernel 0 is = 605000
Simulation cycle for kernel 0 is = 610000
Simulation cycle for kernel 0 is = 615000
Simulation cycle for kernel 0 is = 620000
Simulation cycle for kernel 0 is = 625000
Simulation cycle for kernel 0 is = 630000
Simulation cycle for kernel 0 is = 635000
Simulation cycle for kernel 0 is = 640000
Simulation cycle for kernel 0 is = 645000
Simulation cycle for kernel 0 is = 650000
Simulation cycle for kernel 0 is = 655000
Simulation cycle for kernel 0 is = 660000
Simulation cycle for kernel 0 is = 665000
Simulation cycle for kernel 0 is = 670000
Simulation cycle for kernel 0 is = 675000
Simulation cycle for kernel 0 is = 680000
Simulation cycle for kernel 0 is = 685000
Simulation cycle for kernel 0 is = 690000
Simulation cycle for kernel 0 is = 695000
Simulation cycle for kernel 0 is = 700000
Simulation cycle for kernel 0 is = 705000
Simulation cycle for kernel 0 is = 710000
Simulation cycle for kernel 0 is = 715000
Simulation cycle for kernel 0 is = 720000
Simulation cycle for kernel 0 is = 725000
Simulation cycle for kernel 0 is = 730000
Simulation cycle for kernel 0 is = 735000
Simulation cycle for kernel 0 is = 740000
Simulation cycle for kernel 0 is = 745000
Simulation cycle for kernel 0 is = 750000
Simulation cycle for kernel 0 is = 755000
Simulation cycle for kernel 0 is = 760000
Simulation cycle for kernel 0 is = 765000
Simulation cycle for kernel 0 is = 770000
Simulation cycle for kernel 0 is = 775000
Simulation cycle for kernel 0 is = 780000
Simulation cycle for kernel 0 is = 785000
Simulation cycle for kernel 0 is = 790000
Simulation cycle for kernel 0 is = 795000
Simulation cycle for kernel 0 is = 800000
Simulation cycle for kernel 0 is = 805000
Simulation cycle for kernel 0 is = 810000
Simulation cycle for kernel 0 is = 815000
Simulation cycle for kernel 0 is = 820000
Simulation cycle for kernel 0 is = 825000
Simulation cycle for kernel 0 is = 830000
Simulation cycle for kernel 0 is = 835000
Simulation cycle for kernel 0 is = 840000
Simulation cycle for kernel 0 is = 845000
Simulation cycle for kernel 0 is = 850000
Simulation cycle for kernel 0 is = 855000
Simulation cycle for kernel 0 is = 860000
Simulation cycle for kernel 0 is = 865000
Simulation cycle for kernel 0 is = 870000
Simulation cycle for kernel 0 is = 875000
Simulation cycle for kernel 0 is = 880000
Simulation cycle for kernel 0 is = 885000
Simulation cycle for kernel 0 is = 890000
Simulation cycle for kernel 0 is = 895000
Simulation cycle for kernel 0 is = 900000
Simulation cycle for kernel 0 is = 905000
Simulation cycle for kernel 0 is = 910000
Simulation cycle for kernel 0 is = 915000
Simulation cycle for kernel 0 is = 920000
Simulation cycle for kernel 0 is = 925000
Simulation cycle for kernel 0 is = 930000
Simulation cycle for kernel 0 is = 935000
Destroy streams for kernel 1: size 0
kernel_name = _Z14dynproc_kerneliPiS_S_iiii 
kernel_launch_uid = 1 
gpu_sim_cycle = 939364
gpu_sim_insn = 1188529317
gpu_ipc =    1265.2489
gpu_tot_sim_cycle = 939364
gpu_tot_sim_insn = 1188529317
gpu_tot_ipc =    1265.2489
gpu_tot_issued_cta = 3206
gpu_occupancy = 99.1498% 
gpu_tot_occupancy = 99.1498% 
max_total_param_size = 0
gpu_stall_dramfull = 0
gpu_stall_icnt2sh    = 0
partiton_level_parallism =       4.6437
partiton_level_parallism_total  =       4.6437
partiton_level_parallism_util =       4.7173
partiton_level_parallism_util_total  =       4.7173
L2_BW  =     202.8379 GB/Sec
L2_BW_total  =     202.8379 GB/Sec
gpu_total_sim_rate=85926

========= Core cache stats =========
L1I_cache:
	L1I_total_cache_accesses = 0
	L1I_total_cache_misses = 0
	L1I_total_cache_pending_hits = 0
	L1I_total_cache_reservation_fails = 0
L1D_cache:
	L1D_cache_core[0]: Access = 183602, Miss = 148278, Miss_rate = 0.808, Pending_hits = 34784, Reservation_fails = 11232
	L1D_cache_core[1]: Access = 183816, Miss = 147732, Miss_rate = 0.804, Pending_hits = 35302, Reservation_fails = 10017
	L1D_cache_core[2]: Access = 182114, Miss = 146718, Miss_rate = 0.806, Pending_hits = 34860, Reservation_fails = 12995
	L1D_cache_core[3]: Access = 177008, Miss = 139308, Miss_rate = 0.787, Pending_hits = 35778, Reservation_fails = 9659
	L1D_cache_core[4]: Access = 183816, Miss = 148460, Miss_rate = 0.808, Pending_hits = 34816, Reservation_fails = 9651
	L1D_cache_core[5]: Access = 183816, Miss = 147732, Miss_rate = 0.804, Pending_hits = 35530, Reservation_fails = 8646
	L1D_cache_core[6]: Access = 182114, Miss = 147082, Miss_rate = 0.808, Pending_hits = 34342, Reservation_fails = 10617
	L1D_cache_core[7]: Access = 183816, Miss = 146640, Miss_rate = 0.798, Pending_hits = 36419, Reservation_fails = 9351
	L1D_cache_core[8]: Access = 183816, Miss = 147732, Miss_rate = 0.804, Pending_hits = 35493, Reservation_fails = 9083
	L1D_cache_core[9]: Access = 183816, Miss = 148096, Miss_rate = 0.806, Pending_hits = 34914, Reservation_fails = 8150
	L1D_cache_core[10]: Access = 180412, Miss = 142792, Miss_rate = 0.791, Pending_hits = 36946, Reservation_fails = 9352
	L1D_cache_core[11]: Access = 183816, Miss = 148460, Miss_rate = 0.808, Pending_hits = 34816, Reservation_fails = 9784
	L1D_cache_core[12]: Access = 183816, Miss = 140452, Miss_rate = 0.764, Pending_hits = 41566, Reservation_fails = 8839
	L1D_cache_core[13]: Access = 177008, Miss = 140036, Miss_rate = 0.791, Pending_hits = 36060, Reservation_fails = 9860
	L1D_cache_core[14]: Access = 183816, Miss = 148096, Miss_rate = 0.806, Pending_hits = 35179, Reservation_fails = 9973
	L1D_cache_core[15]: Access = 183816, Miss = 146640, Miss_rate = 0.798, Pending_hits = 36341, Reservation_fails = 10450
	L1D_cache_core[16]: Access = 183816, Miss = 145184, Miss_rate = 0.790, Pending_hits = 36957, Reservation_fails = 9775
	L1D_cache_core[17]: Access = 177008, Miss = 141856, Miss_rate = 0.801, Pending_hits = 34565, Reservation_fails = 8639
	L1D_cache_core[18]: Access = 178710, Miss = 139230, Miss_rate = 0.779, Pending_hits = 37339, Reservation_fails = 9873
	L1D_cache_core[19]: Access = 178710, Miss = 142142, Miss_rate = 0.795, Pending_hits = 35979, Reservation_fails = 10754
	L1D_cache_core[20]: Access = 178710, Miss = 138502, Miss_rate = 0.775, Pending_hits = 39465, Reservation_fails = 10859
	L1D_cache_core[21]: Access = 177008, Miss = 140036, Miss_rate = 0.791, Pending_hits = 36102, Reservation_fails = 9996
	L1D_cache_core[22]: Access = 182114, Miss = 144534, Miss_rate = 0.794, Pending_hits = 37042, Reservation_fails = 9460
	L1D_cache_core[23]: Access = 182438, Miss = 147030, Miss_rate = 0.806, Pending_hits = 34838, Reservation_fails = 9657
	L1D_cache_core[24]: Access = 183816, Miss = 147732, Miss_rate = 0.804, Pending_hits = 35542, Reservation_fails = 9171
	L1D_cache_core[25]: Access = 178710, Miss = 141050, Miss_rate = 0.789, Pending_hits = 36587, Reservation_fails = 11741
	L1D_cache_core[26]: Access = 182114, Miss = 145262, Miss_rate = 0.798, Pending_hits = 36114, Reservation_fails = 9784
	L1D_cache_core[27]: Access = 183816, Miss = 143000, Miss_rate = 0.778, Pending_hits = 39165, Reservation_fails = 9389
	L1D_cache_core[28]: Access = 183816, Miss = 148460, Miss_rate = 0.808, Pending_hits = 34815, Reservation_fails = 11670
	L1D_cache_core[29]: Access = 183816, Miss = 147732, Miss_rate = 0.804, Pending_hits = 35403, Reservation_fails = 9751
	L1D_total_cache_accesses = 5455020
	L1D_total_cache_misses = 4346004
	L1D_total_cache_miss_rate = 0.7967
	L1D_total_cache_pending_hits = 1083059
	L1D_total_cache_reservation_fails = 298178
	L1D_cache_data_port_util = 0.001
	L1D_cache_fill_port_util = 0.154
L1C_cache:
	L1C_total_cache_accesses = 0
	L1C_total_cache_misses = 0
	L1C_total_cache_pending_hits = 0
	L1C_total_cache_reservation_fails = 0
L1T_cache:
	L1T_total_cache_accesses = 0
	L1T_total_cache_misses = 0
	L1T_total_cache_pending_hits = 0
	L1T_total_cache_reservation_fails = 0

Total_core_cache_stats:
	Total_core_cache_stats_breakdown[GLOBAL_ACC_R][HIT] = 9814
	Total_core_cache_stats_breakdown[GLOBAL_ACC_R][HIT_RESERVED] = 1083059
	Total_core_cache_stats_breakdown[GLOBAL_ACC_R][MISS] = 1185612
	Total_core_cache_stats_breakdown[GLOBAL_ACC_R][RESERVATION_FAIL] = 293583
	Total_core_cache_stats_breakdown[GLOBAL_ACC_R][SECTOR_MISS] = 3096406
	Total_core_cache_stats_breakdown[GLOBAL_ACC_R][MSHR_HIT] = 1083059
	Total_core_cache_stats_breakdown[LOCAL_ACC_R][HIT] = 0
	Total_core_cache_stats_breakdown[LOCAL_ACC_R][HIT_RESERVED] = 0
	Total_core_cache_stats_breakdown[LOCAL_ACC_R][MISS] = 0
	Total_core_cache_stats_breakdown[LOCAL_ACC_R][RESERVATION_FAIL] = 0
	Total_core_cache_stats_breakdown[LOCAL_ACC_R][SECTOR_MISS] = 0
	Total_core_cache_stats_breakdown[LOCAL_ACC_R][MSHR_HIT] = 0
	Total_core_cache_stats_breakdown[CONST_ACC_R][HIT] = 0
	Total_core_cache_stats_breakdown[CONST_ACC_R][HIT_RESERVED] = 0
	Total_core_cache_stats_breakdown[CONST_ACC_R][MISS] = 0
	Total_core_cache_stats_breakdown[CONST_ACC_R][RESERVATION_FAIL] = 0
	Total_core_cache_stats_breakdown[CONST_ACC_R][SECTOR_MISS] = 0
	Total_core_cache_stats_breakdown[CONST_ACC_R][MSHR_HIT] = 0
	Total_core_cache_stats_breakdown[TEXTURE_ACC_R][HIT] = 0
	Total_core_cache_stats_breakdown[TEXTURE_ACC_R][HIT_RESERVED] = 0
	Total_core_cache_stats_breakdown[TEXTURE_ACC_R][MISS] = 0
	Total_core_cache_stats_breakdown[TEXTURE_ACC_R][RESERVATION_FAIL] = 0
	Total_core_cache_stats_breakdown[TEXTURE_ACC_R][SECTOR_MISS] = 0
	Total_core_cache_stats_breakdown[TEXTURE_ACC_R][MSHR_HIT] = 0
	Total_core_cache_stats_breakdown[GLOBAL_ACC_W][HIT] = 16143
	Total_core_cache_stats_breakdown[GLOBAL_ACC_W][HIT_RESERVED] = 0
	Total_core_cache_stats_breakdown[GLOBAL_ACC_W][MISS] = 18252
	Total_core_cache_stats_breakdown[GLOBAL_ACC_W][RESERVATION_FAIL] = 4595
	Total_core_cache_stats_breakdown[GLOBAL_ACC_W][SECTOR_MISS] = 45734
	Total_core_cache_stats_breakdown[GLOBAL_ACC_W][MSHR_HIT] = 0
	Total_core_cache_stats_breakdown[LOCAL_ACC_W][HIT] = 0
	Total_core_cache_stats_breakdown[LOCAL_ACC_W][HIT_RESERVED] = 0
	Total_core_cache_stats_breakdown[LOCAL_ACC_W][MISS] = 0
	Total_core_cache_stats_breakdown[LOCAL_ACC_W][RESERVATION_FAIL] = 0
	Total_core_cache_stats_breakdown[LOCAL_ACC_W][SECTOR_MISS] = 0
	Total_core_cache_stats_breakdown[LOCAL_ACC_W][MSHR_HIT] = 0
	Total_core_cache_stats_breakdown[L1_WRBK_ACC][HIT] = 0
	Total_core_cache_stats_breakdown[L1_WRBK_ACC][HIT_RESERVED] = 0
	Total_core_cache_stats_breakdown[L1_WRBK_ACC][MISS] = 0
	Total_core_cache_stats_breakdown[L1_WRBK_ACC][RESERVATION_FAIL] = 0
	Total_core_cache_stats_breakdown[L1_WRBK_ACC][SECTOR_MISS] = 0
	Total_core_cache_stats_breakdown[L1_WRBK_ACC][MSHR_HIT] = 0
	Total_core_cache_stats_breakdown[L2_WRBK_ACC][HIT] = 0
	Total_core_cache_stats_breakdown[L2_WRBK_ACC][HIT_RESERVED] = 0
	Total_core_cache_stats_breakdown[L2_WRBK_ACC][MISS] = 0
	Total_core_cache_stats_breakdown[L2_WRBK_ACC][RESERVATION_FAIL] = 0
	Total_core_cache_stats_breakdown[L2_WRBK_ACC][SECTOR_MISS] = 0
	Total_core_cache_stats_breakdown[L2_WRBK_ACC][MSHR_HIT] = 0
	Total_core_cache_stats_breakdown[INST_ACC_R][HIT] = 0
	Total_core_cache_stats_breakdown[INST_ACC_R][HIT_RESERVED] = 0
	Total_core_cache_stats_breakdown[INST_ACC_R][MISS] = 0
	Total_core_cache_stats_breakdown[INST_ACC_R][RESERVATION_FAIL] = 0
	Total_core_cache_stats_breakdown[INST_ACC_R][SECTOR_MISS] = 0
	Total_core_cache_stats_breakdown[INST_ACC_R][MSHR_HIT] = 0
	Total_core_cache_stats_breakdown[L1_WR_ALLOC_R][HIT] = 0
	Total_core_cache_stats_breakdown[L1_WR_ALLOC_R][HIT_RESERVED] = 0
	Total_core_cache_stats_breakdown[L1_WR_ALLOC_R][MISS] = 0
	Total_core_cache_stats_breakdown[L1_WR_ALLOC_R][RESERVATION_FAIL] = 0
	Total_core_cache_stats_breakdown[L1_WR_ALLOC_R][SECTOR_MISS] = 0
	Total_core_cache_stats_breakdown[L1_WR_ALLOC_R][MSHR_HIT] = 0
	Total_core_cache_stats_breakdown[L2_WR_ALLOC_R][HIT] = 0
	Total_core_cache_stats_breakdown[L2_WR_ALLOC_R][HIT_RESERVED] = 0
	Total_core_cache_stats_breakdown[L2_WR_ALLOC_R][MISS] = 0
	Total_core_cache_stats_breakdown[L2_WR_ALLOC_R][RESERVATION_FAIL] = 0
	Total_core_cache_stats_breakdown[L2_WR_ALLOC_R][SECTOR_MISS] = 0
	Total_core_cache_stats_breakdown[L2_WR_ALLOC_R][MSHR_HIT] = 0
	Total_core_cache_stats_breakdown[GLOBAL_ACC_R][TOTAL_ACCESS] = 5374891
	Total_core_cache_stats_breakdown[GLOBAL_ACC_W][TOTAL_ACCESS] = 80129

Total_core_cache_fail_stats:
	Total_core_cache_fail_stats_breakdown[GLOBAL_ACC_R][MISS_QUEUE_FULL] = 293583
	Total_core_cache_fail_stats_breakdown[GLOBAL_ACC_W][MISS_QUEUE_FULL] = 4595
ctas_completed 3206, Shader 0 warp_id issue ditsribution:
warp_id:
0, 1, 2, 3, 4, 5, 6, 7, 8, 9, 10, 11, 12, 13, 14, 15, 16, 17, 18, 19, 20, 21, 22, 23, 24, 25, 26, 27, 28, 29, 30, 31, 
distro:
39012, 46170, 46170, 46170, 46170, 46170, 46170, 39420, 39420, 46170, 46170, 46170, 46170, 46170, 46170, 39420, 39420, 46170, 46170, 46170, 46170, 46170, 46170, 39420, 39420, 46170, 46170, 46170, 46170, 46170, 46170, 39420, 
gpgpu_n_tot_thrd_icount = 1352052224
gpgpu_n_tot_w_icount = 42251632
gpgpu_n_stall_shd_mem = 923267
gpgpu_n_mem_read_local = 0
gpgpu_n_mem_write_local = 0
gpgpu_n_mem_read_global = 4282018
gpgpu_n_mem_write_global = 80129
gpgpu_n_mem_texture = 0
gpgpu_n_mem_const = 0
gpgpu_n_load_insn  = 33672285
gpgpu_n_store_insn = 500000
gpgpu_n_shmem_insn = 197431360
gpgpu_n_sstarr_insn = 0
gpgpu_n_tex_insn = 0
gpgpu_n_const_mem_insn = 0
gpgpu_n_param_mem_insn = 5745152
gpgpu_n_shmem_bkconflict = 0
gpgpu_n_cache_bkconflict = 0
gpgpu_n_intrawarp_mshr_merge = 0
gpgpu_n_cmem_portconflict = 0
gpgpu_stall_shd_mem[c_mem][resource_stall] = 0
gpgpu_stall_shd_mem[s_mem][bk_conf] = 0
gpgpu_stall_shd_mem[gl_mem][resource_stall] = 226
gpgpu_stall_shd_mem[gl_mem][coal_stall] = 923041
gpgpu_stall_shd_mem[gl_mem][data_port_stall] = 0
gpu_reg_bank_conflict_stalls = 0
Warp Occupancy Distribution:
Stall:3521505	W0_Idle:42976	W0_Scoreboard:65690243	W1:83330	W2:83712	W3:83317	W4:83317	W5:83317	W6:83975	W7:83317	W8:83317	W9:83317	W10:83317	W11:83317	W12:83317	W13:83317	W14:186535	W15:166647	W16:166647	W17:166647	W18:166647	W19:166647	W20:166647	W21:166647	W22:166647	W23:166647	W24:166647	W25:166647	W26:166647	W27:166647	W28:166647	W29:166647	W30:166647	W31:166647	W32:38147911
single_issue_nums: WS0:10161954	WS1:10963862	WS2:10963862	WS3:10161954	
dual_issue_nums: WS0:0	WS1:0	WS2:0	WS3:0	
traffic_breakdown_coretomem[GLOBAL_ACC_R] = 34256144 {8:4282018,}
traffic_breakdown_coretomem[GLOBAL_ACC_W] = 3205160 {40:80129,}
traffic_breakdown_memtocore[GLOBAL_ACC_R] = 171280720 {40:4282018,}
traffic_breakdown_memtocore[GLOBAL_ACC_W] = 641032 {8:80129,}
maxmflatency = 651 
max_icnt2mem_latency = 242 
maxmrqlatency = 300 
max_icnt2sh_latency = 71 
averagemflatency = 345 
avg_icnt2mem_latency = 42 
avg_mrq_latency = 14 
avg_icnt2sh_latency = 3 
mrq_lat_table:1199063 	149814 	173808 	318190 	971455 	341796 	53822 	1170 	5 	0 	0 	0 	0 	0 	0 	0 	0 	0 	0 	0 	0 	0 	0 	0 	0 	0 	0 	0 	0 	0 	0 	0 	
dq_lat_table:0 	0 	0 	0 	0 	0 	0 	0 	0 	0 	0 	0 	0 	0 	0 	0 	0 	0 	0 	0 	0 	0 	0 	0 	0 	0 	0 	0 	0 	0 	0 	0 	
mf_lat_table:0 	0 	0 	0 	0 	0 	0 	583709 	3776765 	1673 	0 	0 	0 	0 	0 	0 	0 	0 	0 	0 	0 	0 	0 	0 	0 	0 	0 	0 	0 	0 	0 	0 	
icnt2mem_lat_table:0 	0 	0 	0 	0 	4314005 	46490 	1652 	0 	0 	0 	0 	0 	0 	0 	0 	0 	0 	0 	0 	0 	0 	0 	0 	
icnt2sh_lat_table:0 	3355022 	735232 	226455 	42639 	2789 	10 	0 	0 	0 	0 	0 	0 	0 	0 	0 	0 	0 	0 	0 	0 	0 	0 	0 	
mf_lat_pw_table:0 	0 	0 	0 	0 	0 	0 	0 	934 	0 	0 	0 	0 	0 	0 	0 	0 	0 	0 	0 	0 	0 	0 	0 	0 	0 	0 	0 	0 	0 	0 	0 	
maximum concurrent accesses to same row:
dram[0]:        64        64        64        64        64        64        64        64        64        64        64        64        64        64        64        64 
dram[1]:        64        64        64        64        64        64        64        64        64        64        64        64        64        64        64        64 
dram[2]:        64        64        64        64        64        64        64        64        64        64        64        64        64        64        64        64 
dram[3]:        64        64        64        64        64        64        64        64        64        64        64        64        64        64        64        64 
dram[4]:        64        64        64        64        64        64        64        64        64        64        64        64        64        64        64        64 
dram[5]:        64        64        64        64        64        64        64        64        64        64        64        64        64        64        64        64 
dram[6]:        64        64        64        64        64        64        64        64        64        64        64        64        64        64        64        64 
dram[7]:        64        64        64        64        64        64        64        64        64        64        64        64        64        64        64        64 
dram[8]:        64        64        64        64        64        64        64        64        64        64        64        64        64        64        64        64 
dram[9]:        64        64        64        64        64        64        64        64        64        64        64        64        64        64        64        64 
dram[10]:        64        64        64        64        64        64        64        64        64        64        64        64        64        64        64        64 
dram[11]:        64        64        64        64        64        64        64        64        64        64        64        64        64        64        64        64 
maximum service time to same row:
dram[0]:     12212     12235      8306      8207      8289      8327      8234      8012      8326      8329      9549      9555     10279     10278     11075     11069 
dram[1]:     12230     12227      8184      8200      8338      8325      8013      8022      8294      8291      9553      9557     10274     10296     11090     11084 
dram[2]:     12242     12239      8058      8023      8328      8306      8175      8268      8296      8309      9563      9554     10292     10290     11078     11075 
dram[3]:     12243     12249      8014      8102      8357      8374      7939      7939      8314      8304      9552      9569     10285     10280     11105     11071 
dram[4]:     12258     12274      8117      8095      8417      8397      7922      7924      8301      8305      9565      9559     10276     10296     11049     11045 
dram[5]:     12270     12266      8205      8177      8392      8538      7961      7964      8318      8319      9558      9558     10292     10288     11067     11060 
dram[6]:     12201     12198      8170      8297      8587      8572      7987      7986      8330      8323      9549      9546     10285     10303     10982     10978 
dram[7]:     12204     12202      8318      8322      8591      8604      7979      7970      8318      8313      9560      9553     10301     10298     10963     10959 
dram[8]:     12187     12185      8324      8342      8489      8532      8452      8385      8320      8327      9536      9531     10300     10290     10956     10970 
dram[9]:     12194     12191      8377      8486      8175      8171      8189      8342      8312      8311      9551      9547     10285     10294     10982     10968 
dram[10]:     12190     12219      8510      8517      8233      8172      8320      8317      8307      8306      9559      9573     10308     10306     10965     11519 
dram[11]:     12217     12226      8240      8247      8283      8273      8320      8409      8391      8317      9558      9550     10303     10312     11515     11524 
average row accesses per activate:
dram[0]:  6.080698  6.189789  6.081818  6.078154  6.036409  6.115413  6.206449  6.180510  6.094195  6.115018  6.226985  6.159410  6.119545  6.075747  6.201784  6.088654 
dram[1]:  6.133798  6.148897  6.099562  6.068941  6.073604  6.106856  6.146055  6.186184  6.087527  6.150018  6.223714  6.178452  6.052956  6.096821  6.073118  6.092701 
dram[2]:  6.196740  6.128985  6.016541  6.085818  6.170534  6.140659  6.147944  6.176254  6.110989  6.179259  6.236636  6.222222  6.144330  6.168514  6.102414  6.097953 
dram[3]:  6.103687  6.116313  6.064493  6.247480  6.113097  6.156503  6.118055  6.128524  6.144015  6.132720  6.189911  6.162911  6.195176  6.154810  6.020570  6.156088 
dram[4]:  6.205119  6.271091  6.073321  6.108799  6.204663  6.207114  6.168755  6.181617  6.151493  6.145066  6.114327  6.103511  6.152174  6.206845  6.161683  6.187176 
dram[5]:  6.218959  6.181079  6.147372  6.217844  6.100473  6.161338  6.273885  6.177729  6.148435  6.286629  6.104281  6.126331  6.167036  6.251217  6.171291  6.106843 
dram[6]:  6.170543  6.155801  6.168879  6.161017  6.118700  6.216988  6.176861  6.162500  6.133456  6.174251  6.225000  6.153024  6.155179  6.217877  5.974230  6.040550 
dram[7]:  6.172758  6.085485  6.133847  6.082545  6.147415  6.142962  6.261487  6.236695  6.205128  6.227154  6.108712  6.165866  6.235426  6.193093  6.098684  6.087591 
dram[8]:  6.047361  6.159794  6.036101  6.071896  6.106050  6.151671  6.164827  6.199408  6.218622  6.060958  6.139441  6.180370  6.226950  6.184883  6.126698  6.094560 
dram[9]:  6.104744  6.079578  6.075245  6.178928  6.023733  6.104956  6.203333  6.282552  6.135244  6.103474  6.118402  6.188056  6.120690  6.145120  6.144224  6.076783 
dram[10]:  6.065942  6.111436  6.206679  6.206603  6.077983  6.157721  6.243102  6.171397  6.154016  6.126973  6.216921  6.275395  6.061751  6.050055  6.200223  6.178452 
dram[11]:  6.057588  6.098032  6.165439  6.130769  6.077677  6.080218  6.168817  6.180945  6.145381  6.126559  6.221021  6.209665  6.026373  6.107614  6.076111  6.233470 
average row locality = 3209123/522282 = 6.144426
number of total memory accesses made:
dram[0]:         0         0         0         0         0         0         0         0         0         0         0         0         0         0         0         0 
dram[1]:         0         0         0         0         0         0         0         0         0         0         0         0         0         0         0         0 
dram[2]:         0         0         0         0         0         0         0         0         0         0         0         0         0         0         0         0 
dram[3]:         0         0         0         0         0         0         0         0         0         0         0         0         0         0         0         0 
dram[4]:         0         0         0         0         0         0         0         0         0         0         0         0         0         0         0         0 
dram[5]:         0         0         0         0         0         0         0         0         0         0         0         0         0         0         0         0 
dram[6]:         0         0         0         0         0         0         0         0         0         0         0         0         0         0         0         0 
dram[7]:         0         0         0         0         0         0         0         0         0         0         0         0         0         0         0         0 
dram[8]:         0         0         0         0         0         0         0         0         0         0         0         0         0         0         0         0 
dram[9]:         0         0         0         0         0         0         0         0         0         0         0         0         0         0         0         0 
dram[10]:         0         0         0         0         0         0         0         0         0         0         0         0         0         0         0         0 
dram[11]:         0         0         0         0         0         0         0         0         0         0         0         0         0         0         0         0 
total accesses: 0
min_bank_accesses = 0!
min_chip_accesses = 0!
number of total read accesses:
dram[0]:     16660     16663     16645     16641     16665     16664     16665     16663     16612     16614     16627     16612     16610     16607     16609     16609 
dram[1]:     16664     16656     16645     16646     16671     16665     16668     16666     16612     16605     16612     16608     16611     16610     16615     16614 
dram[2]:     16656     16657     16652     16656     16673     16684     16667     16670     16603     16604     16603     16608     16611     16615     16604     16604 
dram[3]:     16649     16653     16658     16657     16676     16678     16659     16657     16601     16601     16608     16603     16619     16621     16603     16603 
dram[4]:     16660     16656     16652     16652     16685     16673     16662     16666     16609     16610     16606     16607     16620     16607     16612     16613 
dram[5]:     16660     16657     16647     16646     16678     16685     16665     16674     16613     16611     16603     16602     16611     16621     16601     16610 
dram[6]:     16647     16644     16650     16641     16673     16681     16684     16682     16603     16609     16603     16607     16623     16619     16612     16604 
dram[7]:     16653     16660     16647     16647     16684     16678     16682     16678     16618     16615     16609     16611     16610     16602     16606     16600 
dram[8]:     16658     16661     16640     16642     16675     16671     16676     16677     16617     16624     16607     16607     16606     16617     16603     16613 
dram[9]:     16658     16662     16633     16634     16672     16672     16669     16663     16614     16613     16611     16603     16609     16608     16620     16619 
dram[10]:     16673     16658     16647     16653     16677     16669     16664     16663     16622     16616     16600     16600     16612     16604     16611     16608 
dram[11]:     16656     16664     16653     16657     16664     16671     16656     16658     16617     16621     16611     16624     16605     16610     16605     16607 
total dram reads = 3194113
bank skew: 16685/16600 = 1.01
chip skew: 266200/266146 = 1.00
number of total write accesses:
dram[0]:       272       272       320       320       320       320       320       320       320       320       320       320       312       308       320       320 
dram[1]:       276       276       320       320       320       320       320       320       320       320       320       320       308       308       320       320 
dram[2]:       276       276       320       320       320       320       320       320       320       320       320       320       308       308       320       320 
dram[3]:       276       276       320       320       320       320       320       320       320       320       320       320       308       308       320       320 
dram[4]:       276       276       320       320       320       320       320       320       320       320       320       320       308       308       320       320 
dram[5]:       276       276       320       320       320       320       320       320       320       320       320       320       308       304       320       320 
dram[6]:       276       276       320       320       320       320       320       320       320       320       320       320       304       304       320       320 
dram[7]:       276       276       320       320       320       320       320       320       320       320       320       320       304       304       320       320 
dram[8]:       276       276       320       320       320       320       320       320       320       320       320       320       304       304       320       320 
dram[9]:       276       276       320       320       320       320       320       320       320       320       320       320       304       304       320       320 
dram[10]:       276       276       320       320       320       320       320       320       320       320       320       320       304       304       320       320 
dram[11]:       276       276       320       320       320       320       320       320       320       320       320       320       304       304       320       320 
total dram writes = 60040
bank skew: 320/272 = 1.18
chip skew: 5008/5000 = 1.00
average mf latency per bank:
dram[0]:        466       465       465       464       464       463       463       463       463       463       462       462       464       462       464       463
dram[1]:        465       466       465       466       463       464       462       463       463       464       462       463       462       463       461       461
dram[2]:        464       465       464       463       463       464       463       463       462       462       462       463       462       463       461       462
dram[3]:        465       465       464       463       463       461       464       462       464       463       464       463       462       461       463       462
dram[4]:        466       467       463       465       462       463       461       463       463       463       463       464       462       464       462       463
dram[5]:        464       464       464       464       463       465       462       462       461       463       462       462       463       463       462       463
dram[6]:        465       466       463       463       464       462       463       463       463       463       462       462       463       461       463       462
dram[7]:        465       465       463       465       463       464       462       462       463       464       463       464       462       464       463       463
dram[8]:        464       464       463       464       463       463       461       463       461       464       463       462       462       462       462       463
dram[9]:        464       465       464       463       464       462       464       463       464       464       461       462       463       462       463       463
dram[10]:        464       464       464       465       462       464       462       462       464       464       463       465       464       465       461       462
dram[11]:        464       464       463       463       463       463       462       463       461       462       463       461       464       464       462       463
maximum mf latency per bank:
dram[0]:        539       543       612       623       546       475       523       522       517       597       518       502       470       481       474       488
dram[1]:        536       544       629       630       511       520       485       485       493       505       541       533       518       482       565       548
dram[2]:        533       543       632       626       507       506       522       504       496       555       488       474       476       480       473       529
dram[3]:        544       538       615       623       505       493       500       475       486       619       482       523       651       562       499       534
dram[4]:        542       536       613       621       475       538       496       508       501       517       534       524       543       539       525       526
dram[5]:        548       537       625       629       500       543       495       513       493       496       479       479       486       494       508       473
dram[6]:        536       540       612       617       510       513       466       486       510       501       523       505       504       546       475       479
dram[7]:        534       542       604       624       507       516       532       521       498       486       506       496       543       580       486       481
dram[8]:        543       540       615       614       549       544       523       528       550       525       499       519       475       502       520       498
dram[9]:        549       548       610       608       498       511       491       485       565       561       541       496       500       520       514       497
dram[10]:        541       539       616       623       501       526       494       506       512       495       531       539       477       495       480       470
dram[11]:        536       550       618       617       492       471       528       542       513       481       492       507       478       562       468       479

Number of Memory Banks Accessed per Memory Operation per Warp (from 0):
0	0	0	0	0	0	0	0	0	0	0	0	0	0	0	0	0	0	0	0	0	0	0	0	0	0	0	0	0	0	0	0	0	0	0	0	0	0	0	0	0	0	0	0	0	0	0	0	0	0	0	0	0	0	0	0	0	0	0	0	0	0	0	0	0	0	0	0	0	0	0	0	0	0	0	0	0	0	0	0	0	0	0	0	0	0	0	0	0	0	0	0	0	0	0	0	0	0	0	0	0	0	0	0	0	0	0	0	0	0	0	0	0	0	0	0	0	0	0	0	0	0	0	0	0	0	0	0	0	0	0	0	0	0	0	0	0	0	0	0	0	0	0	0	0	0	0	0	0	0	0	0	0	0	0	0	0	0	0	0	0	0	0	0	0	0	0	0	0	0	0	0	0	0	0	0	0	0	0	0	0	0	0	0	0	0	0	0	0	0	0	0	
Average # of Memory Banks Accessed per Memory Operation per Warp=-nan

position of mrq chosen
0	0	0	0	0	0	0	0	0	0	0	0	0	0	0	0	0	0	0	0	0	0	0	0	0	0	0	0	0	0	0	0	0	0	0	0	0	0	0	0	0	0	0	0	0	0	0	0	0	0	0	0	0	0	0	0	0	0	0	0	0	0	0	0	

average position of mrq chosen = -nan
Memory Partition 0: 
Cache L2_bank_000:
MSHR contents

Cache L2_bank_001:
MSHR contents

In Dram Latency Queue (total = 0): 
DRAM[0]: 16 bks, busW=2 BL=16 CL=24, tRRD=12 tCCD=4, tRCD=24 tRAS=55 tRP=24 tRC=78
n_cmd=2408968 n_nop=2052423 n_act=43645 n_pre=43629 n_ref_event=4572360550251980812 n_req=267417 n_rd=266166 n_rd_L2_A=0 n_write=0 n_wr_bk=5004 bw_util=0.4503
n_activity=2105372 dram_eff=0.5152
bk0: 16660a 2156103i bk1: 16663a 2160340i bk2: 16645a 2153447i bk3: 16641a 2154147i bk4: 16665a 2153876i bk5: 16664a 2153695i bk6: 16665a 2158078i bk7: 16663a 2158546i bk8: 16612a 2157358i bk9: 16614a 2156101i bk10: 16627a 2158239i bk11: 16612a 2157320i bk12: 16610a 2156992i bk13: 16607a 2155991i bk14: 16609a 2159334i bk15: 16609a 2157769i 

------------------------------------------------------------------------

Row_Buffer_Locality = 0.836805
Row_Buffer_Locality_read = 0.838958
Row_Buffer_Locality_write = 0.378897
Bank_Level_Parallism = 2.325625
Bank_Level_Parallism_Col = 1.943361
Bank_Level_Parallism_Ready = 1.276651
write_to_read_ratio_blp_rw_average = 0.030051
GrpLevelPara = 1.739046 

BW Util details:
bwutil = 0.450267 
total_CMD = 2408968 
util_bw = 1084680 
Wasted_Col = 568029 
Wasted_Row = 232773 
Idle = 523486 

BW Util Bottlenecks: 
RCDc_limit = 562971 
RCDWRc_limit = 4873 
WTRc_limit = 26412 
RTWc_limit = 30628 
CCDLc_limit = 198834 
rwq = 0 
CCDLc_limit_alone = 195676 
WTRc_limit_alone = 25392 
RTWc_limit_alone = 28490 

Commands details: 
total_CMD = 2408968 
n_nop = 2052423 
Read = 266166 
Write = 0 
L2_Alloc = 0 
L2_WB = 5004 
n_act = 43645 
n_pre = 43629 
n_ref = 4572360550251980812 
n_req = 267417 
total_req = 271170 

Dual Bus Interface Util: 
issued_total_row = 87274 
issued_total_col = 271170 
Row_Bus_Util =  0.036229 
CoL_Bus_Util = 0.112567 
Either_Row_CoL_Bus_Util = 0.148007 
Issued_on_Two_Bus_Simul_Util = 0.000788 
issued_two_Eff = 0.005326 
queue_avg = 3.964905 


dram_util_bins: 0 0 0 0 0 0 0 0 0 0
dram_eff_bins: 0 0 0 0 0 0 0 0 0 0
mrqq: max=58 avg=3.9649
Memory Partition 1: 
Cache L2_bank_002:
MSHR contents

Cache L2_bank_003:
MSHR contents

In Dram Latency Queue (total = 0): 
DRAM[1]: 16 bks, busW=2 BL=16 CL=24, tRRD=12 tCCD=4, tRCD=24 tRAS=55 tRP=24 tRC=78
n_cmd=2408968 n_nop=2052322 n_act=43703 n_pre=43687 n_ref_event=0 n_req=267420 n_rd=266168 n_rd_L2_A=0 n_write=0 n_wr_bk=5008 bw_util=0.4503
n_activity=2113693 dram_eff=0.5132
bk0: 16664a 2157119i bk1: 16656a 2159195i bk2: 16645a 2156364i bk3: 16646a 2156118i bk4: 16671a 2154981i bk5: 16665a 2155371i bk6: 16668a 2155157i bk7: 16666a 2158061i bk8: 16612a 2155975i bk9: 16605a 2158714i bk10: 16612a 2158045i bk11: 16608a 2159987i bk12: 16611a 2156049i bk13: 16610a 2156827i bk14: 16615a 2155944i bk15: 16614a 2157678i 

------------------------------------------------------------------------

Row_Buffer_Locality = 0.836590
Row_Buffer_Locality_read = 0.838703
Row_Buffer_Locality_write = 0.387380
Bank_Level_Parallism = 2.312511
Bank_Level_Parallism_Col = 0.000000
Bank_Level_Parallism_Ready = 1.271218
write_to_read_ratio_blp_rw_average = 0.000000
GrpLevelPara = 0.000000 

BW Util details:
bwutil = 0.450277 
total_CMD = 2408968 
util_bw = 1084704 
Wasted_Col = 572688 
Wasted_Row = 236554 
Idle = 515022 

BW Util Bottlenecks: 
RCDc_limit = 565978 
RCDWRc_limit = 4509 
WTRc_limit = 25925 
RTWc_limit = 31461 
CCDLc_limit = 198929 
rwq = 0 
CCDLc_limit_alone = 195761 
WTRc_limit_alone = 24985 
RTWc_limit_alone = 29233 

Commands details: 
total_CMD = 2408968 
n_nop = 2052322 
Read = 266168 
Write = 0 
L2_Alloc = 0 
L2_WB = 5008 
n_act = 43703 
n_pre = 43687 
n_ref = 0 
n_req = 267420 
total_req = 271176 

Dual Bus Interface Util: 
issued_total_row = 87390 
issued_total_col = 271176 
Row_Bus_Util =  0.036277 
CoL_Bus_Util = 0.112569 
Either_Row_CoL_Bus_Util = 0.148049 
Issued_on_Two_Bus_Simul_Util = 0.000797 
issued_two_Eff = 0.005383 
queue_avg = 3.956618 


dram_util_bins: 0 0 0 0 0 0 0 0 0 0
dram_eff_bins: 0 0 0 0 0 0 0 0 0 0
mrqq: max=63 avg=3.95662
Memory Partition 2: 
Cache L2_bank_004:
MSHR contents

Cache L2_bank_005:
MSHR contents

In Dram Latency Queue (total = 0): 
DRAM[2]: 16 bks, busW=2 BL=16 CL=24, tRRD=12 tCCD=4, tRCD=24 tRAS=55 tRP=24 tRC=78
n_cmd=2408968 n_nop=2052705 n_act=43523 n_pre=43507 n_ref_event=0 n_req=267419 n_rd=266167 n_rd_L2_A=0 n_write=0 n_wr_bk=5008 bw_util=0.4503
n_activity=2113590 dram_eff=0.5132
bk0: 16656a 2160426i bk1: 16657a 2158429i bk2: 16652a 2153834i bk3: 16656a 2155928i bk4: 16673a 2157136i bk5: 16684a 2156001i bk6: 16667a 2154920i bk7: 16670a 2155347i bk8: 16603a 2155662i bk9: 16604a 2158026i bk10: 16603a 2159924i bk11: 16608a 2161048i bk12: 16611a 2158625i bk13: 16615a 2158305i bk14: 16604a 2156109i bk15: 16604a 2157499i 

------------------------------------------------------------------------

Row_Buffer_Locality = 0.837263
Row_Buffer_Locality_read = 0.839447
Row_Buffer_Locality_write = 0.373003
Bank_Level_Parallism = 2.310220
Bank_Level_Parallism_Col = 1.885912
Bank_Level_Parallism_Ready = 1.275693
write_to_read_ratio_blp_rw_average = 0.030458
GrpLevelPara = 1.728725 

BW Util details:
bwutil = 0.450276 
total_CMD = 2408968 
util_bw = 1084700 
Wasted_Col = 573592 
Wasted_Row = 235028 
Idle = 515648 

BW Util Bottlenecks: 
RCDc_limit = 565084 
RCDWRc_limit = 5116 
WTRc_limit = 26335 
RTWc_limit = 31076 
CCDLc_limit = 199543 
rwq = 0 
CCDLc_limit_alone = 195962 
WTRc_limit_alone = 25189 
RTWc_limit_alone = 28641 

Commands details: 
total_CMD = 2408968 
n_nop = 2052705 
Read = 266167 
Write = 0 
L2_Alloc = 0 
L2_WB = 5008 
n_act = 43523 
n_pre = 43507 
n_ref = 0 
n_req = 267419 
total_req = 271175 

Dual Bus Interface Util: 
issued_total_row = 87030 
issued_total_col = 271175 
Row_Bus_Util =  0.036128 
CoL_Bus_Util = 0.112569 
Either_Row_CoL_Bus_Util = 0.147890 
Issued_on_Two_Bus_Simul_Util = 0.000806 
issued_two_Eff = 0.005451 
queue_avg = 3.999518 


dram_util_bins: 0 0 0 0 0 0 0 0 0 0
dram_eff_bins: 0 0 0 0 0 0 0 0 0 0
[...]

------------------------------------------------------------------------

Row_Buffer_Locality = 0.829897
Row_Buffer_Locality_read = 0.832123
Row_Buffer_Locality_write = 0.373175
Bank_Level_Parallism = 2.331023
Bank_Level_Parallism_Col = 1.888839
Bank_Level_Parallism_Ready = 1.269537
write_to_read_ratio_blp_rw_average = 0.031739
GrpLevelPara = 1.735608 

BW Util details:
bwutil = 0.449503 
total_CMD = 24100430 
util_bw = 10833212 
Wasted_Col = 5938509 
Wasted_Row = 2430513 
Idle = 4898196 

BW Util Bottlenecks: 
RCDc_limit = 5915120 
RCDWRc_limit = 49632 
WTRc_limit = 271499 
RTWc_limit = 338743 
CCDLc_limit = 2022429 
rwq = 0 
CCDLc_limit_alone = 1984439 
WTRc_limit_alone = 259448 
RTWc_limit_alone = 312804 

Commands details: 
total_CMD = 24100430 
n_nop = 20503424 
Read = 2656534 
Write = 0 
L2_Alloc = 0 
L2_WB = 51769 
n_act = 454089 
n_pre = 454073 
n_ref = 0 
n_req = 2669477 
total_req = 2708303 

Dual Bus Interface Util: 
issued_total_row = 908162 
issued_total_col = 2708303 
Row_Bus_Util =  0.037682 
CoL_Bus_Util = 0.112376 
Either_Row_CoL_Bus_Util = 0.149251 
Issued_on_Two_Bus_Simul_Util = 0.000807 
issued_two_Eff = 0.005410 
queue_avg = 4.223898 


dram_util_bins: 0 0 0 0 0 0 0 0 0 0
dram_eff_bins: 0 0 0 0 0 0 0 0 0 0
mrqq: max=64 avg=4.2239
Memory Partition 7: 
Cache L2_bank_014:
MSHR contents

Cache L2_bank_015:
MSHR contents

In Dram Latency Queue (total = 0): 
DRAM[7]: 16 bks, busW=2 BL=16 CL=24, tRRD=12 tCCD=4, tRCD=24 tRAS=55 tRP=24 tRC=78
n_cmd=24100430 n_nop=20504036 n_act=453681 n_pre=453665 n_ref_event=0 n_req=2669394 n_rd=2656451 n_rd_L2_A=0 n_write=0 n_wr_bk=51769 bw_util=0.4495
n_activity=21263880 dram_eff=0.5094
bk0: 166311a 21496423i bk1: 166340a 21513923i bk2: 166055a 21505720i bk3: 166066a 21516569i bk4: 166015a 21518472i bk5: 165995a 21520528i bk6: 165932a 21509316i bk7: 165915a 21526047i bk8: 165960a 21511012i bk9: 165970a 21527166i bk10: 165970a 21499783i bk11: 165992a 21515098i bk12: 166010a 21513048i bk13: 165985a 21523285i bk14: 165969a 21511701i bk15: 165966a 21521789i 

------------------------------------------------------------------------

Row_Buffer_Locality = 0.830045
Row_Buffer_Locality_read = 0.832256
Row_Buffer_Locality_write = 0.376265
Bank_Level_Parallism = 2.335122
Bank_Level_Parallism_Col = 1.892496
Bank_Level_Parallism_Ready = 1.270314
write_to_read_ratio_blp_rw_average = 0.031901
GrpLevelPara = 1.737749 

BW Util details:
bwutil = 0.449489 
total_CMD = 24100430 
util_bw = 10832880 
Wasted_Col = 5917470 
Wasted_Row = 2419503 
Idle = 4930577 

BW Util Bottlenecks: 
RCDc_limit = 5902877 
RCDWRc_limit = 49044 
WTRc_limit = 275964 
RTWc_limit = 337645 
CCDLc_limit = 2019114 
rwq = 0 
CCDLc_limit_alone = 1981023 
WTRc_limit_alone = 263511 
RTWc_limit_alone = 312007 

Commands details: 
total_CMD = 24100430 
n_nop = 20504036 
Read = 2656451 
Write = 0 
L2_Alloc = 0 
L2_WB = 51769 
n_act = 453681 
n_pre = 453665 
n_ref = 0 
n_req = 2669394 
total_req = 2708220 

Dual Bus Interface Util: 
issued_total_row = 907346 
issued_total_col = 2708220 
Row_Bus_Util =  0.037649 
CoL_Bus_Util = 0.112372 
Either_Row_CoL_Bus_Util = 0.149225 
Issued_on_Two_Bus_Simul_Util = 0.000796 
issued_two_Eff = 0.005331 
queue_avg = 4.233405 


dram_util_bins: 0 0 0 0 0 0 0 0 0 0
dram_eff_bins: 0 0 0 0 0 0 0 0 0 0
mrqq: max=64 avg=4.23341
Memory Partition 8: 
Cache L2_bank_016:
MSHR contents

Cache L2_bank_017:
MSHR contents

In Dram Latency Queue (total = 0): 
DRAM[8]: 16 bks, busW=2 BL=16 CL=24, tRRD=12 tCCD=4, tRCD=24 tRAS=55 tRP=24 tRC=78
n_cmd=24100430 n_nop=20503925 n_act=453848 n_pre=453832 n_ref_event=0 n_req=2669367 n_rd=2656418 n_rd_L2_A=0 n_write=0 n_wr_bk=51784 bw_util=0.4495
n_activity=21255764 dram_eff=0.5096
bk0: 166321a 21499947i bk1: 166317a 21511093i bk2: 166064a 21501663i bk3: 166061a 21513845i bk4: 165988a 21508715i bk5: 165982a 21523138i bk6: 165955a 21509988i bk7: 165953a 21521516i bk8: 165978a 21509429i bk9: 165995a 21522973i bk10: 165985a 21505678i bk11: 165960a 21517801i bk12: 165956a 21512423i bk13: 165971a 21526103i bk14: 165960a 21507027i bk15: 165972a 21523921i 

------------------------------------------------------------------------

Row_Buffer_Locality = 0.829981
Row_Buffer_Locality_read = 0.832208
Row_Buffer_Locality_write = 0.373002
Bank_Level_Parallism = 2.335381
Bank_Level_Parallism_Col = 1.892067
Bank_Level_Parallism_Ready = 1.270662
write_to_read_ratio_blp_rw_average = 0.032070
GrpLevelPara = 1.737307 

BW Util details:
bwutil = 0.449486 
total_CMD = 24100430 
util_bw = 10832808 
Wasted_Col = 5921032 
Wasted_Row = 2417715 
Idle = 4928875 

BW Util Bottlenecks: 
RCDc_limit = 5907286 
RCDWRc_limit = 50227 
WTRc_limit = 280180 
RTWc_limit = 337207 
CCDLc_limit = 2020749 
rwq = 0 
CCDLc_limit_alone = 1981788 
WTRc_limit_alone = 267606 
RTWc_limit_alone = 310820 

Commands details: 
total_CMD = 24100430 
n_nop = 20503925 
Read = 2656418 
Write = 0 
L2_Alloc = 0 
L2_WB = 51784 
n_act = 453848 
n_pre = 453832 
n_ref = 0 
n_req = 2669367 
total_req = 2708202 

Dual Bus Interface Util: 
issued_total_row = 907680 
issued_total_col = 2708202 
Row_Bus_Util =  0.037662 
CoL_Bus_Util = 0.112372 
Either_Row_CoL_Bus_Util = 0.149230 
Issued_on_Two_Bus_Simul_Util = 0.000804 
issued_two_Eff = 0.005388 
queue_avg = 4.224557 


dram_util_bins: 0 0 0 0 0 0 0 0 0 0
dram_eff_bins: 0 0 0 0 0 0 0 0 0 0
mrqq: max=64 avg=4.22456
Memory Partition 9: 
Cache L2_bank_018:
MSHR contents

Cache L2_bank_019:
MSHR contents

In Dram Latency Queue (total = 0): 
DRAM[9]: 16 bks, busW=2 BL=16 CL=24, tRRD=12 tCCD=4, tRCD=24 tRAS=55 tRP=24 tRC=78
n_cmd=24100430 n_nop=20502912 n_act=454321 n_pre=454305 n_ref_event=0 n_req=2669467 n_rd=2656519 n_rd_L2_A=0 n_write=0 n_wr_bk=51786 bw_util=0.4495
n_activity=21274438 dram_eff=0.5092
bk0: 166316a 21494763i bk1: 166324a 21514983i bk2: 166068a 21503109i bk3: 166066a 21515763i bk4: 165990a 21513986i bk5: 165995a 21521745i bk6: 165958a 21508511i bk7: 165970a 21534610i bk8: 165999a 21511959i bk9: 165988a 21521553i bk10: 165954a 21501694i bk11: 165951a 21519620i bk12: 165974a 21506191i bk13: 165973a 21523329i bk14: 165994a 21509666i bk15: 165999a 21529398i 

------------------------------------------------------------------------

Row_Buffer_Locality = 0.829810
Row_Buffer_Locality_read = 0.832050
Row_Buffer_Locality_write = 0.370173
Bank_Level_Parallism = 2.332144
Bank_Level_Parallism_Col = 1.889223
Bank_Level_Parallism_Ready = 1.268884
write_to_read_ratio_blp_rw_average = 0.031807
GrpLevelPara = 1.734877 

BW Util details:
bwutil = 0.449503 
total_CMD = 24100430 
util_bw = 10833220 
Wasted_Col = 5932430 
Wasted_Row = 2424510 
Idle = 4910270 

BW Util Bottlenecks: 
RCDc_limit = 5918136 
RCDWRc_limit = 49792 
WTRc_limit = 275716 
RTWc_limit = 337448 
CCDLc_limit = 2025225 
rwq = 0 
CCDLc_limit_alone = 1986662 
WTRc_limit_alone = 263125 
RTWc_limit_alone = 311476 

Commands details: 
total_CMD = 24100430 
n_nop = 20502912 
Read = 2656519 
Write = 0 
L2_Alloc = 0 
L2_WB = 51786 
n_act = 454321 
n_pre = 454305 
n_ref = 0 
n_req = 2669467 
total_req = 2708305 

Dual Bus Interface Util: 
issued_total_row = 908626 
issued_total_col = 2708305 
Row_Bus_Util =  0.037702 
CoL_Bus_Util = 0.112376 
Either_Row_CoL_Bus_Util = 0.149272 
Issued_on_Two_Bus_Simul_Util = 0.000806 
issued_two_Eff = 0.005396 
queue_avg = 4.214817 


dram_util_bins: 0 0 0 0 0 0 0 0 0 0
dram_eff_bins: 0 0 0 0 0 0 0 0 0 0
mrqq: max=64 avg=4.21482
Memory Partition 10: 
Cache L2_bank_020:
MSHR contents

Cache L2_bank_021:
MSHR contents

In Dram Latency Queue (total = 0): 
DRAM[10]: 16 bks, busW=2 BL=16 CL=24, tRRD=12 tCCD=4, tRCD=24 tRAS=55 tRP=24 tRC=78
n_cmd=24100430 n_nop=20503660 n_act=453790 n_pre=453774 n_ref_event=0 n_req=2669484 n_rd=2656540 n_rd_L2_A=0 n_write=0 n_wr_bk=51773 bw_util=0.4495
n_activity=21289771 dram_eff=0.5088
bk0: 166337a 21499267i bk1: 166324a 21511248i bk2: 166076a 21508906i bk3: 166099a 21522495i bk4: 165988a 21505725i bk5: 165978a 21530181i bk6: 165963a 21514357i bk7: 165954a 21536397i bk8: 165992a 21520097i bk9: 165999a 21533185i bk10: 165954a 21510140i bk11: 165950a 21520924i bk12: 165977a 21501433i bk13: 165989a 21513439i bk14: 165979a 21513967i bk15: 165981a 21528798i 

------------------------------------------------------------------------

Row_Buffer_Locality = 0.830010
Row_Buffer_Locality_read = 0.832243
Row_Buffer_Locality_write = 0.371755
Bank_Level_Parallism = 2.330601
Bank_Level_Parallism_Col = 1.888057
Bank_Level_Parallism_Ready = 1.269329
write_to_read_ratio_blp_rw_average = 0.031889
GrpLevelPara = 1.733853 

BW Util details:
bwutil = 0.449505 
total_CMD = 24100430 
util_bw = 10833252 
Wasted_Col = 5934778 
Wasted_Row = 2421779 
Idle = 4910621 

BW Util Bottlenecks: 
RCDc_limit = 5911060 
RCDWRc_limit = 49943 
WTRc_limit = 274091 
RTWc_limit = 338898 
CCDLc_limit = 2028289 
rwq = 0 
CCDLc_limit_alone = 1990128 
WTRc_limit_alone = 262302 
RTWc_limit_alone = 312526 

Commands details: 
total_CMD = 24100430 
n_nop = 20503660 
Read = 2656540 
Write = 0 
L2_Alloc = 0 
L2_WB = 51773 
n_act = 453790 
n_pre = 453774 
n_ref = 0 
n_req = 2669484 
total_req = 2708313 

Dual Bus Interface Util: 
issued_total_row = 907564 
issued_total_col = 2708313 
Row_Bus_Util =  0.037658 
CoL_Bus_Util = 0.112376 
Either_Row_CoL_Bus_Util = 0.149241 
Issued_on_Two_Bus_Simul_Util = 0.000793 
issued_two_Eff = 0.005312 
queue_avg = 4.212566 


dram_util_bins: 0 0 0 0 0 0 0 0 0 0
dram_eff_bins: 0 0 0 0 0 0 0 0 0 0
mrqq: max=64 avg=4.21257
Memory Partition 11: 
Cache L2_bank_022:
MSHR contents

Cache L2_bank_023:
MSHR contents

In Dram Latency Queue (total = 0): 
DRAM[11]: 16 bks, busW=2 BL=16 CL=24, tRRD=12 tCCD=4, tRCD=24 tRAS=55 tRP=24 tRC=78
n_cmd=24100430 n_nop=20504315 n_act=453539 n_pre=453523 n_ref_event=0 n_req=2669425 n_rd=2656483 n_rd_L2_A=0 n_write=0 n_wr_bk=51765 bw_util=0.4495
n_activity=21286049 dram_eff=0.5089
bk0: 166314a 21501646i bk1: 166335a 21519996i bk2: 166106a 21518285i bk3: 166110a 21523130i bk4: 165983a 21524494i bk5: 165997a 21530900i bk6: 165935a 21519896i bk7: 165935a 21534146i bk8: 165987a 21524446i bk9: 165980a 21525704i bk10: 165959a 21517777i bk11: 165950a 21531871i bk12: 165992a 21502365i bk13: 165994a 21515742i bk14: 165971a 21516794i bk15: 165935a 21525838i 

------------------------------------------------------------------------

Row_Buffer_Locality = 0.830100
Row_Buffer_Locality_read = 0.832320
Row_Buffer_Locality_write = 0.374440
Bank_Level_Parallism = 2.327116
Bank_Level_Parallism_Col = 1.885208
Bank_Level_Parallism_Ready = 1.267425
write_to_read_ratio_blp_rw_average = 0.031343
GrpLevelPara = 1.732729 

BW Util details:
bwutil = 0.449494 
total_CMD = 24100430 
util_bw = 10832992 
Wasted_Col = 5933698 
Wasted_Row = 2424465 
Idle = 4909275 

BW Util Bottlenecks: 
RCDc_limit = 5907618 
RCDWRc_limit = 49244 
WTRc_limit = 277351 
RTWc_limit = 331469 
CCDLc_limit = 2026539 
rwq = 0 
CCDLc_limit_alone = 1988181 
WTRc_limit_alone = 264854 
RTWc_limit_alone = 305608 

Commands details: 
total_CMD = 24100430 
n_nop = 20504315 
Read = 2656483 
Write = 0 
L2_Alloc = 0 
L2_WB = 51765 
n_act = 453539 
n_pre = 453523 
n_ref = 0 
n_req = 2669425 
total_req = 2708248 

Dual Bus Interface Util: 
issued_total_row = 907062 
issued_total_col = 2708248 
Row_Bus_Util =  0.037637 
CoL_Bus_Util = 0.112373 
Either_Row_CoL_Bus_Util = 0.149214 
Issued_on_Two_Bus_Simul_Util = 0.000796 
issued_two_Eff = 0.005338 
queue_avg = 4.198071 


dram_util_bins: 0 0 0 0 0 0 0 0 0 0
dram_eff_bins: 0 0 0 0 0 0 0 0 0 0
mrqq: max=63 avg=4.19807

========= L2 cache stats =========
L2_cache_bank[0]: Access = 1813946, Miss = 1354341, Miss_rate = 0.747, Pending_hits = 229300, Reservation_fails = 0
L2_cache_bank[1]: Access = 1813947, Miss = 1354286, Miss_rate = 0.747, Pending_hits = 229828, Reservation_fails = 0
L2_cache_bank[2]: Access = 1813637, Miss = 1354325, Miss_rate = 0.747, Pending_hits = 229756, Reservation_fails = 0
L2_cache_bank[3]: Access = 1814088, Miss = 1354246, Miss_rate = 0.747, Pending_hits = 230006, Reservation_fails = 0
L2_cache_bank[4]: Access = 1813919, Miss = 1354263, Miss_rate = 0.747, Pending_hits = 229411, Reservation_fails = 0
L2_cache_bank[5]: Access = 1813484, Miss = 1354280, Miss_rate = 0.747, Pending_hits = 229675, Reservation_fails = 0
L2_cache_bank[6]: Access = 1813889, Miss = 1354254, Miss_rate = 0.747, Pending_hits = 229185, Reservation_fails = 0
L2_cache_bank[7]: Access = 1813796, Miss = 1354312, Miss_rate = 0.747, Pending_hits = 229354, Reservation_fails = 0
L2_cache_bank[8]: Access = 1813378, Miss = 1354311, Miss_rate = 0.747, Pending_hits = 228768, Reservation_fails = 0
L2_cache_bank[9]: Access = 1813959, Miss = 1354324, Miss_rate = 0.747, Pending_hits = 229186, Reservation_fails = 0
L2_cache_bank[10]: Access = 1813889, Miss = 1354356, Miss_rate = 0.747, Pending_hits = 228709, Reservation_fails = 0
L2_cache_bank[11]: Access = 1813446, Miss = 1354337, Miss_rate = 0.747, Pending_hits = 228971, Reservation_fails = 0
L2_cache_bank[12]: Access = 1813952, Miss = 1354333, Miss_rate = 0.747, Pending_hits = 228155, Reservation_fails = 0
L2_cache_bank[13]: Access = 1813933, Miss = 1354282, Miss_rate = 0.747, Pending_hits = 228229, Reservation_fails = 0
L2_cache_bank[14]: Access = 1813559, Miss = 1354263, Miss_rate = 0.747, Pending_hits = 228308, Reservation_fails = 0
L2_cache_bank[15]: Access = 1814113, Miss = 1354269, Miss_rate = 0.747, Pending_hits = 228734, Reservation_fails = 0
L2_cache_bank[16]: Access = 1813988, Miss = 1354249, Miss_rate = 0.747, Pending_hits = 228689, Reservation_fails = 0
L2_cache_bank[17]: Access = 1813525, Miss = 1354253, Miss_rate = 0.747, Pending_hits = 228952, Reservation_fails = 0
L2_cache_bank[18]: Access = 1813996, Miss = 1354293, Miss_rate = 0.747, Pending_hits = 228846, Reservation_fails = 0
L2_cache_bank[19]: Access = 1813879, Miss = 1354308, Miss_rate = 0.747, Pending_hits = 229097, Reservation_fails = 0
L2_cache_bank[20]: Access = 1813549, Miss = 1354307, Miss_rate = 0.747, Pending_hits = 228919, Reservation_fails = 0
L2_cache_bank[21]: Access = 1814070, Miss = 1354314, Miss_rate = 0.747, Pending_hits = 229277, Reservation_fails = 0
L2_cache_bank[22]: Access = 1813869, Miss = 1354287, Miss_rate = 0.747, Pending_hits = 228957, Reservation_fails = 0
L2_cache_bank[23]: Access = 1813353, Miss = 1354277, Miss_rate = 0.747, Pending_hits = 229141, Reservation_fails = 0
L2_total_cache_accesses = 43531164
L2_total_cache_misses = 32503070
L2_total_cache_miss_rate = 0.7467
L2_total_cache_pending_hits = 5497453
L2_total_cache_reservation_fails = 0
L2_total_cache_breakdown:
	L2_cache_stats_breakdown[GLOBAL_ACC_R][HIT] = 5356971
	L2_cache_stats_breakdown[GLOBAL_ACC_R][HIT_RESERVED] = 5497453
	L2_cache_stats_breakdown[GLOBAL_ACC_R][MISS] = 7977431
	L2_cache_stats_breakdown[GLOBAL_ACC_R][RESERVATION_FAIL] = 0
	L2_cache_stats_breakdown[GLOBAL_ACC_R][SECTOR_MISS] = 23900616
	L2_cache_stats_breakdown[GLOBAL_ACC_R][MSHR_HIT] = 5497453
	L2_cache_stats_breakdown[LOCAL_ACC_R][HIT] = 0
	L2_cache_stats_breakdown[LOCAL_ACC_R][HIT_RESERVED] = 0
	L2_cache_stats_breakdown[LOCAL_ACC_R][MISS] = 0
	L2_cache_stats_breakdown[LOCAL_ACC_R][RESERVATION_FAIL] = 0
	L2_cache_stats_breakdown[LOCAL_ACC_R][SECTOR_MISS] = 0
	L2_cache_stats_breakdown[LOCAL_ACC_R][MSHR_HIT] = 0
	L2_cache_stats_breakdown[CONST_ACC_R][HIT] = 0
	L2_cache_stats_breakdown[CONST_ACC_R][HIT_RESERVED] = 0
	L2_cache_stats_breakdown[CONST_ACC_R][MISS] = 0
	L2_cache_stats_breakdown[CONST_ACC_R][RESERVATION_FAIL] = 0
	L2_cache_stats_breakdown[CONST_ACC_R][SECTOR_MISS] = 0
	L2_cache_stats_breakdown[CONST_ACC_R][MSHR_HIT] = 0
	L2_cache_stats_breakdown[TEXTURE_ACC_R][HIT] = 0
	L2_cache_stats_breakdown[TEXTURE_ACC_R][HIT_RESERVED] = 0
	L2_cache_stats_breakdown[TEXTURE_ACC_R][MISS] = 0
	L2_cache_stats_breakdown[TEXTURE_ACC_R][RESERVATION_FAIL] = 0
	L2_cache_stats_breakdown[TEXTURE_ACC_R][SECTOR_MISS] = 0
	L2_cache_stats_breakdown[TEXTURE_ACC_R][MSHR_HIT] = 0
	L2_cache_stats_breakdown[GLOBAL_ACC_W][HIT] = 173670
	L2_cache_stats_breakdown[GLOBAL_ACC_W][HIT_RESERVED] = 0
	L2_cache_stats_breakdown[GLOBAL_ACC_W][MISS] = 156273
	L2_cache_stats_breakdown[GLOBAL_ACC_W][RESERVATION_FAIL] = 0
	L2_cache_stats_breakdown[GLOBAL_ACC_W][SECTOR_MISS] = 468750
	L2_cache_stats_breakdown[GLOBAL_ACC_W][MSHR_HIT] = 0
	L2_cache_stats_breakdown[LOCAL_ACC_W][HIT] = 0
	L2_cache_stats_breakdown[LOCAL_ACC_W][HIT_RESERVED] = 0
	L2_cache_stats_breakdown[LOCAL_ACC_W][MISS] = 0
	L2_cache_stats_breakdown[LOCAL_ACC_W][RESERVATION_FAIL] = 0
	L2_cache_stats_breakdown[LOCAL_ACC_W][SECTOR_MISS] = 0
	L2_cache_stats_breakdown[LOCAL_ACC_W][MSHR_HIT] = 0
	L2_cache_stats_breakdown[L1_WRBK_ACC][HIT] = 0
	L2_cache_stats_breakdown[L1_WRBK_ACC][HIT_RESERVED] = 0
	L2_cache_stats_breakdown[L1_WRBK_ACC][MISS] = 0
	L2_cache_stats_breakdown[L1_WRBK_ACC][RESERVATION_FAIL] = 0
	L2_cache_stats_breakdown[L1_WRBK_ACC][SECTOR_MISS] = 0
	L2_cache_stats_breakdown[L1_WRBK_ACC][MSHR_HIT] = 0
	L2_cache_stats_breakdown[L2_WRBK_ACC][HIT] = 0
	L2_cache_stats_breakdown[L2_WRBK_ACC][HIT_RESERVED] = 0
	L2_cache_stats_breakdown[L2_WRBK_ACC][MISS] = 0
	L2_cache_stats_breakdown[L2_WRBK_ACC][RESERVATION_FAIL] = 0
	L2_cache_stats_breakdown[L2_WRBK_ACC][SECTOR_MISS] = 0
	L2_cache_stats_breakdown[L2_WRBK_ACC][MSHR_HIT] = 0
	L2_cache_stats_breakdown[INST_ACC_R][HIT] = 0
	L2_cache_stats_breakdown[INST_ACC_R][HIT_RESERVED] = 0
	L2_cache_stats_breakdown[INST_ACC_R][MISS] = 0
	L2_cache_stats_breakdown[INST_ACC_R][RESERVATION_FAIL] = 0
	L2_cache_stats_breakdown[INST_ACC_R][SECTOR_MISS] = 0
	L2_cache_stats_breakdown[INST_ACC_R][MSHR_HIT] = 0
	L2_cache_stats_breakdown[L1_WR_ALLOC_R][HIT] = 0
	L2_cache_stats_breakdown[L1_WR_ALLOC_R][HIT_RESERVED] = 0
	L2_cache_stats_breakdown[L1_WR_ALLOC_R][MISS] = 0
	L2_cache_stats_breakdown[L1_WR_ALLOC_R][RESERVATION_FAIL] = 0
	L2_cache_stats_breakdown[L1_WR_ALLOC_R][SECTOR_MISS] = 0
	L2_cache_stats_breakdown[L1_WR_ALLOC_R][MSHR_HIT] = 0
	L2_cache_stats_breakdown[L2_WR_ALLOC_R][HIT] = 0
	L2_cache_stats_breakdown[L2_WR_ALLOC_R][HIT_RESERVED] = 0
	L2_cache_stats_breakdown[L2_WR_ALLOC_R][MISS] = 0
	L2_cache_stats_breakdown[L2_WR_ALLOC_R][RESERVATION_FAIL] = 0
	L2_cache_stats_breakdown[L2_WR_ALLOC_R][SECTOR_MISS] = 0
	L2_cache_stats_breakdown[L2_WR_ALLOC_R][MSHR_HIT] = 0
	L2_cache_stats_breakdown[GLOBAL_ACC_R][TOTAL_ACCESS] = 42732471
	L2_cache_stats_breakdown[GLOBAL_ACC_W][TOTAL_ACCESS] = 798693
L2_total_cache_reservation_fail_breakdown:
L2_cache_data_port_util = 0.025
L2_cache_fill_port_util = 0.141

icnt_total_pkts_mem_to_simt=43531164
icnt_total_pkts_simt_to_mem=43531164
LD_mem_lat_dist  0 0 0 0 0 0 0 0 0 0 0 0 0 0 0 0 0 0 0 0 0 0 0 0 0 0 0
ST_mem_lat_dist  0 0 0 0 0 0 0 0 0 0 0 0 0 0 0 0 0 0 0 0 0 0 0 0 0 0 0
----------------------------Interconnect-DETAILS--------------------------------
Req_Network_injected_packets_num = 43531164
Req_Network_cycles = 9397833
Req_Network_injected_packets_per_cycle =       4.6320 
Req_Network_conflicts_per_cycle =       0.7831
Req_Network_conflicts_per_cycle_util =       0.7958
Req_Bank_Level_Parallism =       4.7071
Req_Network_in_buffer_full_per_cycle =       0.0000
Req_Network_in_buffer_avg_util =       0.2865
Req_Network_out_buffer_full_per_cycle =       0.0000
Req_Network_out_buffer_avg_util =       0.1930

Reply_Network_injected_packets_num = 43531164
Reply_Network_cycles = 9397833
Reply_Network_injected_packets_per_cycle =        4.6320
Reply_Network_conflicts_per_cycle =        2.4572
Reply_Network_conflicts_per_cycle_util =       2.4940
Reply_Bank_Level_Parallism =       4.7015
Reply_Network_in_buffer_full_per_cycle =       0.0000
Reply_Network_in_buffer_avg_util =       0.2439
Reply_Network_out_buffer_full_per_cycle =       0.0000
Reply_Network_out_buffer_avg_util =       0.1544
----------------------------END-of-Interconnect-DETAILS-------------------------


gpgpu_simulation_time = 1 days, 12 hrs, 39 min, 53 sec (131993 sec)
gpgpu_simulation_rate = 89850 (inst/sec)
gpgpu_simulation_rate = 71 (cycle/sec)
gpgpu_silicon_slowdown = 19225352x
GPGPU-Sim: *** exit detected ***
