

        *** GPGPU-Sim Simulator Version 4.2.0  [build gpgpu-sim_git-commit-5e9d31b8132651796656877ecb58fde27177ba7a_modified_315.0] ***


GPGPU-Sim PTX: simulation mode 0 (can change with PTX_SIM_MODE_FUNC environment variable:
               1=functional simulation only, 0=detailed performance simulator)
GPGPU-Sim PTX: overriding embedded ptx with ptx file (PTX_SIM_USE_PTX_FILE is set)
GPGPU-Sim: Configuration options:

-save_embedded_ptx                      0 # saves ptx files embedded in binary as <n>.ptx
-keep                                   0 # keep intermediate files created by GPGPU-Sim when interfacing with external programs
-gpgpu_ptx_save_converted_ptxplus                    0 # Saved converted ptxplus to a file
-gpgpu_occupancy_sm_number                   75 # The SM number to pass to ptxas when getting register usage for computing GPU occupancy. This parameter is required in the config.
-ptx_opcode_latency_int           4,4,4,4,21 # Opcode latencies for integers <ADD,MAX,MUL,MAD,DIV,SHFL>Default 1,1,19,25,145,32
-ptx_opcode_latency_fp           4,4,4,4,39 # Opcode latencies for single precision floating points <ADD,MAX,MUL,MAD,DIV>Default 1,1,1,1,30
-ptx_opcode_latency_dp      64,64,64,64,330 # Opcode latencies for double precision floating points <ADD,MAX,MUL,MAD,DIV>Default 8,8,8,8,335
-ptx_opcode_latency_sfu                   21 # Opcode latencies for SFU instructionsDefault 8
-ptx_opcode_latency_tesnor                   64 # Opcode latencies for Tensor instructionsDefault 64
-ptx_opcode_initiation_int            2,2,2,2,2 # Opcode initiation intervals for integers <ADD,MAX,MUL,MAD,DIV,SHFL>Default 1,1,4,4,32,4
-ptx_opcode_initiation_fp            2,2,2,2,4 # Opcode initiation intervals for single precision floating points <ADD,MAX,MUL,MAD,DIV>Default 1,1,1,1,5
-ptx_opcode_initiation_dp      64,64,64,64,130 # Opcode initiation intervals for double precision floating points <ADD,MAX,MUL,MAD,DIV>Default 8,8,8,8,130
-ptx_opcode_initiation_sfu                    8 # Opcode initiation intervals for sfu instructionsDefault 8
-ptx_opcode_initiation_tensor                   64 # Opcode initiation intervals for tensor instructionsDefault 64
-cdp_latency         7200,8000,100,12000,1600 # CDP API latency <cudaStreamCreateWithFlags, cudaGetParameterBufferV2_init_perWarp, cudaGetParameterBufferV2_perKernel, cudaLaunchDeviceV2_init_perWarp, cudaLaunchDevicV2_perKernel>Default 7200,8000,100,12000,1600
-network_mode                           2 # Interconnection network mode
-inter_config_file                   mesh # Interconnection network config file
-icnt_in_buffer_limit                  512 # in_buffer_limit
-icnt_out_buffer_limit                  512 # out_buffer_limit
-icnt_subnets                           2 # subnets
-icnt_arbiter_algo                      1 # arbiter_algo
-icnt_verbose                           0 # inct_verbose
-icnt_grant_cycles                      1 # grant_cycles
-gpgpu_ptx_use_cuobjdump                    1 # Use cuobjdump to extract ptx and sass from binaries
-gpgpu_experimental_lib_support                    0 # Try to extract code from cuda libraries [Broken because of unknown cudaGetExportTable]
-checkpoint_option                      0 #  checkpointing flag (0 = no checkpoint)
-checkpoint_kernel                      1 #  checkpointing during execution of which kernel (1- 1st kernel)
-checkpoint_CTA                         0 #  checkpointing after # of CTA (< less than total CTA)
-resume_option                          0 #  resume flag (0 = no resume)
-resume_kernel                          0 #  Resume from which kernel (1= 1st kernel)
-resume_CTA                             0 #  resume from which CTA 
-checkpoint_CTA_t                       0 #  resume from which CTA 
-checkpoint_insn_Y                      0 #  resume from which CTA 
-gpgpu_ptx_convert_to_ptxplus                    0 # Convert SASS (native ISA) to ptxplus and run ptxplus
-gpgpu_ptx_force_max_capability                   75 # Force maximum compute capability
-gpgpu_ptx_inst_debug_to_file                    0 # Dump executed instructions' debug information to file
-gpgpu_ptx_inst_debug_file       inst_debug.txt # Executed instructions' debug output file
-gpgpu_ptx_inst_debug_thread_uid                    1 # Thread UID for executed instructions' debug output
-gpgpu_simd_model                       1 # 1 = post-dominator
-gpgpu_shader_core_pipeline              1024:32 # shader core pipeline config, i.e., {<nthread>:<warpsize>}
-gpgpu_tex_cache:l1  N:4:128:256,L:R:m:N:L,T:512:8,128:2 # per-shader L1 texture cache  (READ-ONLY) config  {<nsets>:<bsize>:<assoc>,<rep>:<wr>:<alloc>:<wr_alloc>,<mshr>:<N>:<merge>,<mq>:<rf>}
-gpgpu_const_cache:l1 N:128:64:8,L:R:f:N:L,S:2:64,4 # per-shader L1 constant memory cache  (READ-ONLY) config  {<nsets>:<bsize>:<assoc>,<rep>:<wr>:<alloc>:<wr_alloc>,<mshr>:<N>:<merge>,<mq>} 
-gpgpu_cache:il1     N:64:128:16,L:R:f:N:L,S:2:48,4 # shader L1 instruction cache config  {<nsets>:<bsize>:<assoc>,<rep>:<wr>:<alloc>:<wr_alloc>,<mshr>:<N>:<merge>,<mq>} 
-gpgpu_cache:dl1     S:4:128:64,L:T:m:L:L,A:256:32,16:0,32 # per-shader L1 data cache config  {<nsets>:<bsize>:<assoc>,<rep>:<wr>:<alloc>:<wr_alloc>,<mshr>:<N>:<merge>,<mq> | none}
-gpgpu_l1_cache_write_ratio                   25 # L1D write ratio
-gpgpu_l1_banks                         4 # The number of L1 cache banks
-gpgpu_l1_banks_byte_interleaving                   32 # l1 banks byte interleaving granularity
-gpgpu_l1_banks_hashing_function                    0 # l1 banks hashing function
-gpgpu_l1_latency                      32 # L1 Hit Latency
-gpgpu_smem_latency                    30 # smem Latency
-gpgpu_cache:dl1PrefL1                 none # per-shader L1 data cache config  {<nsets>:<bsize>:<assoc>,<rep>:<wr>:<alloc>:<wr_alloc>,<mshr>:<N>:<merge>,<mq> | none}
-gpgpu_cache:dl1PrefShared                 none # per-shader L1 data cache config  {<nsets>:<bsize>:<assoc>,<rep>:<wr>:<alloc>:<wr_alloc>,<mshr>:<N>:<merge>,<mq> | none}
-gpgpu_gmem_skip_L1D                    0 # global memory access skip L1D cache (implements -Xptxas -dlcm=cg, default=no skip)
-gpgpu_perfect_mem                      0 # enable perfect memory mode (no cache miss)
-n_regfile_gating_group                    4 # group of lanes that should be read/written together)
-gpgpu_clock_gated_reg_file                    0 # enable clock gated reg file for power calculations
-gpgpu_clock_gated_lanes                    0 # enable clock gated lanes for power calculations
-gpgpu_shader_registers                65536 # Number of registers per shader core. Limits number of concurrent CTAs. (default 8192)
-gpgpu_registers_per_block                65536 # Maximum number of registers per CTA. (default 8192)
-gpgpu_ignore_resources_limitation                    0 # gpgpu_ignore_resources_limitation (default 0)
-gpgpu_shader_cta                      16 # Maximum number of concurrent CTAs in shader (default 32)
-gpgpu_num_cta_barriers                   16 # Maximum number of named barriers per CTA (default 16)
-gpgpu_n_clusters                      30 # number of processing clusters
-gpgpu_n_cores_per_cluster                    1 # number of simd cores per cluster
-gpgpu_n_cluster_ejection_buffer_size                   32 # number of packets in ejection buffer
-gpgpu_n_ldst_response_buffer_size                    2 # number of response packets in ld/st unit ejection buffer
-gpgpu_shmem_per_block                49152 # Size of shared memory per thread block or CTA (default 48kB)
-gpgpu_shmem_size                   65536 # Size of shared memory per shader core (default 16kB)
-gpgpu_shmem_option                 32,64 # Option list of shared memory sizes
-gpgpu_unified_l1d_size                   96 # Size of unified data cache(L1D + shared memory) in KB
-gpgpu_adaptive_cache_config                    1 # adaptive_cache_config
-gpgpu_shmem_sizeDefault                65536 # Size of shared memory per shader core (default 16kB)
-gpgpu_shmem_size_PrefL1                16384 # Size of shared memory per shader core (default 16kB)
-gpgpu_shmem_size_PrefShared                16384 # Size of shared memory per shader core (default 16kB)
-gpgpu_shmem_num_banks                   32 # Number of banks in the shared memory in each shader core (default 16)
-gpgpu_shmem_limited_broadcast                    0 # Limit shared memory to do one broadcast per cycle (default on)
-gpgpu_shmem_warp_parts                    1 # Number of portions a warp is divided into for shared memory bank conflict check 
-gpgpu_mem_unit_ports                    1 # The number of memory transactions allowed per core cycle
-gpgpu_shmem_warp_parts                    1 # Number of portions a warp is divided into for shared memory bank conflict check 
-gpgpu_warpdistro_shader                   -1 # Specify which shader core to collect the warp size distribution from
-gpgpu_warp_issue_shader                    0 # Specify which shader core to collect the warp issue distribution from
-gpgpu_local_mem_map                    1 # Mapping from local memory space address to simulated GPU physical address space (default = enabled)
-gpgpu_num_reg_banks                    8 # Number of register banks (default = 8)
-gpgpu_reg_bank_use_warp_id                    0 # Use warp ID in mapping registers to banks (default = off)
-gpgpu_sub_core_model                    1 # Sub Core Volta/Pascal model (default = off)
-gpgpu_enable_specialized_operand_collector                    0 # enable_specialized_operand_collector
-gpgpu_operand_collector_num_units_sp                    4 # number of collector units (default = 4)
-gpgpu_operand_collector_num_units_dp                    0 # number of collector units (default = 0)
-gpgpu_operand_collector_num_units_sfu                    4 # number of collector units (default = 4)
-gpgpu_operand_collector_num_units_int                    0 # number of collector units (default = 0)
-gpgpu_operand_collector_num_units_tensor_core                    4 # number of collector units (default = 4)
-gpgpu_operand_collector_num_units_mem                    2 # number of collector units (default = 2)
-gpgpu_operand_collector_num_units_gen                    8 # number of collector units (default = 0)
-gpgpu_operand_collector_num_in_ports_sp                    1 # number of collector unit in ports (default = 1)
-gpgpu_operand_collector_num_in_ports_dp                    0 # number of collector unit in ports (default = 0)
-gpgpu_operand_collector_num_in_ports_sfu                    1 # number of collector unit in ports (default = 1)
-gpgpu_operand_collector_num_in_ports_int                    0 # number of collector unit in ports (default = 0)
-gpgpu_operand_collector_num_in_ports_tensor_core                    1 # number of collector unit in ports (default = 1)
-gpgpu_operand_collector_num_in_ports_mem                    1 # number of collector unit in ports (default = 1)
-gpgpu_operand_collector_num_in_ports_gen                    8 # number of collector unit in ports (default = 0)
-gpgpu_operand_collector_num_out_ports_sp                    1 # number of collector unit in ports (default = 1)
-gpgpu_operand_collector_num_out_ports_dp                    0 # number of collector unit in ports (default = 0)
-gpgpu_operand_collector_num_out_ports_sfu                    1 # number of collector unit in ports (default = 1)
-gpgpu_operand_collector_num_out_ports_int                    0 # number of collector unit in ports (default = 0)
-gpgpu_operand_collector_num_out_ports_tensor_core                    1 # number of collector unit in ports (default = 1)
-gpgpu_operand_collector_num_out_ports_mem                    1 # number of collector unit in ports (default = 1)
-gpgpu_operand_collector_num_out_ports_gen                    8 # number of collector unit in ports (default = 0)
-gpgpu_coalesce_arch                   75 # Coalescing arch (GT200 = 13, Fermi = 20)
-gpgpu_num_sched_per_core                    4 # Number of warp schedulers per core
-gpgpu_max_insn_issue_per_warp                    1 # Max number of instructions that can be issued per warp in one cycle by scheduler (either 1 or 2)
-gpgpu_dual_issue_diff_exec_units                    1 # should dual issue use two different execution unit resources (Default = 1)
-gpgpu_simt_core_sim_order                    1 # Select the simulation order of cores in a cluster (0=Fix, 1=Round-Robin)
-gpgpu_pipeline_widths 4,4,4,4,4,4,4,4,4,4,8,4,4 # Pipeline widths ID_OC_SP,ID_OC_DP,ID_OC_INT,ID_OC_SFU,ID_OC_MEM,OC_EX_SP,OC_EX_DP,OC_EX_INT,OC_EX_SFU,OC_EX_MEM,EX_WB,ID_OC_TENSOR_CORE,OC_EX_TENSOR_CORE
-gpgpu_tensor_core_avail                    1 # Tensor Core Available (default=0)
-gpgpu_num_sp_units                     4 # Number of SP units (default=1)
-gpgpu_num_dp_units                     4 # Number of DP units (default=0)
-gpgpu_num_int_units                    4 # Number of INT units (default=0)
-gpgpu_num_sfu_units                    4 # Number of SF units (default=1)
-gpgpu_num_tensor_core_units                    4 # Number of tensor_core units (default=1)
-gpgpu_num_mem_units                    1 # Number if ldst units (default=1) WARNING: not hooked up to anything
-gpgpu_scheduler                      lrr # Scheduler configuration: < lrr | gto | two_level_active > If two_level_active:<num_active_warps>:<inner_prioritization>:<outer_prioritization>For complete list of prioritization values see shader.h enum scheduler_prioritization_typeDefault: gto
-gpgpu_concurrent_kernel_sm                    0 # Support concurrent kernels on a SM (default = disabled)
-gpgpu_perfect_inst_const_cache                    1 # perfect inst and const cache mode, so all inst and const hits in the cache(default = disabled)
-gpgpu_inst_fetch_throughput                    4 # the number of fetched intruction per warp each cycle
-gpgpu_reg_file_port_throughput                    2 # the number ports of the register file
-specialized_unit_1         0,4,4,4,4,BRA # specialized unit config {<enabled>,<num_units>:<latency>:<initiation>,<ID_OC_SPEC>:<OC_EX_SPEC>,<NAME>}
-specialized_unit_2         0,4,4,4,4,BRA # specialized unit config {<enabled>,<num_units>:<latency>:<initiation>,<ID_OC_SPEC>:<OC_EX_SPEC>,<NAME>}
-specialized_unit_3         0,4,4,4,4,BRA # specialized unit config {<enabled>,<num_units>:<latency>:<initiation>,<ID_OC_SPEC>:<OC_EX_SPEC>,<NAME>}
-specialized_unit_4         0,4,4,4,4,BRA # specialized unit config {<enabled>,<num_units>:<latency>:<initiation>,<ID_OC_SPEC>:<OC_EX_SPEC>,<NAME>}
-specialized_unit_5         0,4,4,4,4,BRA # specialized unit config {<enabled>,<num_units>:<latency>:<initiation>,<ID_OC_SPEC>:<OC_EX_SPEC>,<NAME>}
-specialized_unit_6         0,4,4,4,4,BRA # specialized unit config {<enabled>,<num_units>:<latency>:<initiation>,<ID_OC_SPEC>:<OC_EX_SPEC>,<NAME>}
-specialized_unit_7         0,4,4,4,4,BRA # specialized unit config {<enabled>,<num_units>:<latency>:<initiation>,<ID_OC_SPEC>:<OC_EX_SPEC>,<NAME>}
-specialized_unit_8         0,4,4,4,4,BRA # specialized unit config {<enabled>,<num_units>:<latency>:<initiation>,<ID_OC_SPEC>:<OC_EX_SPEC>,<NAME>}
-gpgpu_perf_sim_memcpy                    1 # Fill the L2 cache on memcpy
-gpgpu_simple_dram_model                    0 # simple_dram_model with fixed latency and BW
-gpgpu_dram_scheduler                    1 # 0 = fifo, 1 = FR-FCFS (defaul)
-gpgpu_dram_partition_queues          64:64:64:64 # i2$:$2d:d2$:$2i
-l2_ideal                               0 # Use a ideal L2 cache that always hit
-gpgpu_cache:dl2     S:64:128:16,L:B:m:L:P,A:192:4,32:0,32 # unified banked L2 data cache config  {<nsets>:<bsize>:<assoc>,<rep>:<wr>:<alloc>:<wr_alloc>,<mshr>:<N>:<merge>,<mq>}
-gpgpu_cache:dl2_texture_only                    0 # L2 cache used for texture only
-gpgpu_n_mem                           12 # number of memory modules (e.g. memory controllers) in gpu
-gpgpu_n_sub_partition_per_mchannel                    2 # number of memory subpartition in each memory module
-gpgpu_n_mem_per_ctrlr                    1 # number of memory chips per memory controller
-gpgpu_memlatency_stat                   14 # track and display latency statistics 0x2 enables MC, 0x4 enables queue logs
-gpgpu_frfcfs_dram_sched_queue_size                   64 # 0 = unlimited (default); # entries per chip
-gpgpu_dram_return_queue_size                  192 # 0 = unlimited (default); # entries per chip
-gpgpu_dram_buswidth                    2 # default = 4 bytes (8 bytes per cycle at DDR)
-gpgpu_dram_burst_length                   16 # Burst length of each DRAM request (default = 4 data bus cycle)
-dram_data_command_freq_ratio                    4 # Frequency ratio between DRAM data bus and command bus (default = 2 times, i.e. DDR)
-gpgpu_dram_timing_opt nbk=16:CCD=4:RRD=12:RCD=24:RAS=55:RP=24:RC=78:CL=24:WL=8:CDLR=10:WR=24:nbkgrp=4:CCDL=6:RTPL=4 # DRAM timing parameters = {nbk:tCCD:tRRD:tRCD:tRAS:tRP:tRC:CL:WL:tCDLR:tWR:nbkgrp:tCCDL:tRTPL}
-gpgpu_l2_rop_latency                  194 # ROP queue latency (default 85)
-dram_latency                          96 # DRAM latency (default 30)
-dram_dual_bus_interface                    0 # dual_bus_interface (default = 0) 
-dram_bnk_indexing_policy                    0 # dram_bnk_indexing_policy (0 = normal indexing, 1 = Xoring with the higher bits) (Default = 0)
-dram_bnkgrp_indexing_policy                    1 # dram_bnkgrp_indexing_policy (0 = take higher bits, 1 = take lower bits) (Default = 0)
-dram_seperate_write_queue_enable                    0 # Seperate_Write_Queue_Enable
-dram_write_queue_size             32:28:16 # Write_Queue_Size
-dram_elimnate_rw_turnaround                    0 # elimnate_rw_turnaround i.e set tWTR and tRTW = 0
-icnt_flit_size                        40 # icnt_flit_size
-icnt_flit_size                        40 # icnt_flit_size
-mem_profiler                           0 # memory access runtime profiling (0 = not enabled)
-gpgpu_mem_addr_mapping dramid@8;00000000.00000000.00000000.00000000.0000RRRR.RRRRRRRR.RBBBCCCC.BCCSSSSS # mapping memory address to dram model {dramid@<start bit>;<memory address map>}
-gpgpu_mem_addr_test                    0 # run sweep test to check address mapping for aliased address
-gpgpu_mem_address_mask                    1 # 0 = old addressing mask, 1 = new addressing mask, 2 = new add. mask + flipped bank sel and chip sel bits
-gpgpu_memory_partition_indexing                    0 # 0 = no indexing, 1 = bitwise xoring, 2 = IPoly, 3 = custom indexing
-accelwattch_xml_file accelwattch_sass_sim.xml # AccelWattch XML file
-power_simulation_enabled                    1 # Turn on power simulator (1=On, 0=Off)
-power_per_cycle_dump                    1 # Dump detailed power output each cycle
-hw_perf_file_name            hw_perf.csv # Hardware Performance Statistics file
-hw_perf_bench_name    hw_perf_bench_name # Kernel Name in Hardware Performance Statistics file
-power_simulation_mode                    0 # Switch performance counter input for power simulation (0=Sim, 1=HW, 2=HW-Sim Hybrid)
-dvfs_enabled                           1 # Turn on DVFS for power model
-aggregate_power_stats                    0 # Accumulate power across all kernels
-accelwattch_hybrid_perfsim_L1_RH                    0 # Get L1 Read Hits for Accelwattch-Hybrid from Accel-Sim
-accelwattch_hybrid_perfsim_L1_RM                    0 # Get L1 Read Misses for Accelwattch-Hybrid from Accel-Sim
-accelwattch_hybrid_perfsim_L1_WH                    0 # Get L1 Write Hits for Accelwattch-Hybrid from Accel-Sim
-accelwattch_hybrid_perfsim_L1_WM                    0 # Get L1 Write Misses for Accelwattch-Hybrid from Accel-Sim
-accelwattch_hybrid_perfsim_L2_RH                    0 # Get L2 Read Hits for Accelwattch-Hybrid from Accel-Sim
-accelwattch_hybrid_perfsim_L2_RM                    0 # Get L2 Read Misses for Accelwattch-Hybrid from Accel-Sim
-accelwattch_hybrid_perfsim_L2_WH                    0 # Get L2 Write Hits for Accelwattch-Hybrid from Accel-Sim
-accelwattch_hybrid_perfsim_L2_WM                    0 # Get L2 Write Misses for Accelwattch-Hybrid from Accel-Sim
-accelwattch_hybrid_perfsim_CC_ACC                    0 # Get Constant Cache Acesses for Accelwattch-Hybrid from Accel-Sim
-accelwattch_hybrid_perfsim_SHARED_ACC                    0 # Get Shared Memory Acesses for Accelwattch-Hybrid from Accel-Sim
-accelwattch_hybrid_perfsim_DRAM_RD                    0 # Get DRAM Reads for Accelwattch-Hybrid from Accel-Sim
-accelwattch_hybrid_perfsim_DRAM_WR                    0 # Get DRAM Writes for Accelwattch-Hybrid from Accel-Sim
-accelwattch_hybrid_perfsim_NOC                    0 # Get Interconnect Acesses for Accelwattch-Hybrid from Accel-Sim
-accelwattch_hybrid_perfsim_PIPE_DUTY                    0 # Get Pipeline Duty Cycle Acesses for Accelwattch-Hybrid from Accel-Sim
-accelwattch_hybrid_perfsim_NUM_SM_IDLE                    0 # Get Number of Idle SMs for Accelwattch-Hybrid from Accel-Sim
-accelwattch_hybrid_perfsim_CYCLES                    0 # Get Executed Cycles for Accelwattch-Hybrid from Accel-Sim
-accelwattch_hybrid_perfsim_VOLTAGE                    0 # Get Chip Voltage for Accelwattch-Hybrid from Accel-Sim
-power_trace_enabled                    0 # produce a file for the power trace (1=On, 0=Off)
-power_trace_zlevel                     0 # Compression level of the power trace output log (0=no comp, 9=highest)
-steady_power_levels_enabled                    0 # produce a file for the steady power levels (1=On, 0=Off)
-steady_state_definition                  8:4 # allowed deviation:number of samples
-gpgpu_max_cycle                        0 # terminates gpu simulation early (0 = no limit)
-gpgpu_max_insn                         0 # terminates gpu simulation early (0 = no limit)
-gpgpu_max_cta                          0 # terminates gpu simulation early (0 = no limit)
-gpgpu_max_completed_cta                    0 # terminates gpu simulation early (0 = no limit)
-gpgpu_runtime_stat                  1000 # display runtime statistics such as dram utilization {<freq>:<flag>}
-liveness_message_freq                    1 # Minimum number of seconds between simulation liveness messages (0 = always print)
-gpgpu_compute_capability_major                    7 # Major compute capability version number
-gpgpu_compute_capability_minor                    5 # Minor compute capability version number
-gpgpu_flush_l1_cache                    1 # Flush L1 cache at the end of each kernel call
-gpgpu_flush_l2_cache                    0 # Flush L2 cache at the end of each kernel call
-gpgpu_deadlock_detect                    1 # Stop the simulation at deadlock (1=on (default), 0=off)
-gpgpu_ptx_instruction_classification                    0 # if enabled will classify ptx instruction types per kernel (Max 255 kernels now)
-gpgpu_ptx_sim_mode                     0 # Select between Performance (default) or Functional simulation (1)
-gpgpu_clock_domains 1365:1365:1365:3500.5 # Clock Domain Frequencies in MhZ {<Core Clock>:<ICNT Clock>:<L2 Clock>:<DRAM Clock>}
-gpgpu_max_concurrent_kernel                  128 # maximum kernels that can run concurrently on GPU, set this value according to max resident grids for your compute capability
-gpgpu_cflog_interval                    0 # Interval between each snapshot in control flow logger
-visualizer_enabled                     0 # Turn on visualizer output (1=On, 0=Off)
-visualizer_outputfile                 NULL # Specifies the output log file for visualizer
-visualizer_zlevel                      6 # Compression level of the visualizer output log (0=no comp, 9=highest)
-gpgpu_stack_size_limit                 1024 # GPU thread stack size
-gpgpu_heap_size_limit              8388608 # GPU malloc heap size 
-gpgpu_runtime_sync_depth_limit                    2 # GPU device runtime synchronize depth
-gpgpu_runtime_pending_launch_count_limit                 2048 # GPU device runtime pending launch count
-trace_enabled                          0 # Turn on traces
-trace_components                    none # comma seperated list of traces to enable. Complete list found in trace_streams.tup. Default none
-trace_sampling_core                    0 # The core which is printed using CORE_DPRINTF. Default 0
-trace_sampling_memory_partition                   -1 # The memory partition which is printed using MEMPART_DPRINTF. Default -1 (i.e. all)
-enable_ptx_file_line_stats                    1 # Turn on PTX source line statistic profiling. (1 = On)
-ptx_line_stats_filename gpgpu_inst_stats.txt # Output file for PTX source line statistics.
-gpgpu_kernel_launch_latency                 5000 # Kernel launch latency in cycles. Default: 0
-gpgpu_cdp_enabled                      0 # Turn on CDP
-gpgpu_TB_launch_latency                    0 # thread block launch latency in cycles. Default: 0
-mem_runtime_stat                     100 # memory access runtime profiling sampling849372315c13957bc671de4b81b61bb9  /home/pars/Documents/sim_5/cc_base
Extracting PTX file and ptxas options    1: cc_base.1.sm_75.ptx -arch=sm_75
 freq
-L1D_metrics                            0 # memory access runtime profiling for L1 data cache
-IPC_per_prof_interval                    0 # IPC per profiling interval
-instruction_monitor                    0 # Instruction monitor
-noncoal_metrics                        0 # memory access runtime profiling for shared memory
-L2_metrics                             0 # memory access runtime profiling for L2 cache
-DRAM_metrics                           0 # memory access runtime profiling for DRAM
-Shmem_metrics                          0 # memory access runtime profiling for noncoalesced accesses
-store_enable                           0 # Enable stores for memory profiling
-accumulate_stats                       0 # Accumulate stats for the memory profiling
-dump_enable                            0 # Process dump enable flag - (def = 0)
-flush_l1d                              0 # Enable flushings for L1D caches - (default = 0)
-flush_l2                               0 # Enable flushings for L2 caches - (default = 0)
-flush_dram                             0 # Enable flushings for DRAM - (default = 0)
-flush_noncoalesceds                    0 # Enable flushings for non coalesced accesses - (default = 0)
-flush_shmems                           0 # Enable flushings for shared memory accesses - (default = 0)
-error_percentage          21474836480001 # Error percentage for the flushes - (default = 1)
-dump_sampling_cycle       21474836485000 # Dump sampling frequency - (default = 5000)
-flush_acc_type                         2 # Flush access types
-monitor_sampling_cycle                 5000 # Monitoring sampling cycle - (default = 5000)
DRAM Timing Options:
nbk                                    16 # number of banks
CCD                                     4 # column to column delay
RRD                                    12 # minimal delay between activation of rows in different banks
RCD                                    24 # row to column delay
RAS                                    55 # time needed to activate row
RP                                     24 # time needed to precharge (deactivate) row
RC                                     78 # row cycle time
CDLR                                   10 # switching from write to read (changes tWTR)
WR                                     24 # last data-in to row precharge
CL                                     24 # CAS latency
WL                                      8 # Write latency
nbkgrp                                  4 # number of bank groups
CCDL                                    6 # column to column delay between accesses to different bank groups
RTPL                                    4 # read to precharge delay between accesses to different bank groups
Total number of memory sub partition = 24
addr_dec_mask[CHIP]  = 0000000000000000 	high:64 low:0
addr_dec_mask[BK]    = 0000000000007080 	high:15 low:7
addr_dec_mask[ROW]   = 000000000fff8000 	high:28 low:15
addr_dec_mask[COL]   = 0000000000000f7f 	high:12 low:0
addr_dec_mask[BURST] = 000000000000001f 	high:5 low:0
sub_partition_id_mask = 0000000000000080
GPGPU-Sim uArch: clock freqs: 1365000000.000000:1365000000.000000:1365000000.000000:3500500000.000000
GPGPU-Sim uArch: clock periods: 0.00000000073260073260:0.00000000073260073260:0.00000000073260073260:0.00000000028567347522
*** Initializing Memory Statistics ***
GPGPU-Sim uArch: performance model initialization complete.
self exe links to: /home/pars/Documents/sim_5/cc_base
self exe links to: /home/pars/Documents/sim_5/cc_base
11.0
GPGPU-Sim PTX: __cudaRegisterFatBinary, fat_cubin_handle = 1, filename=default
self exe links to: /home/pars/Documents/sim_5/cc_base
Running md5sum using "md5sum /home/pars/Documents/sim_5/cc_base "
self exe links to: /home/pars/Documents/sim_5/cc_base
Extracting specific PTX file named cc_base.1.sm_75.ptx 
GPGPU-Sim PTX: __cudaRegisterFunction _Z8shortcutiPi : hostFun 0x0x55aab2811dd1, fat_cubin_handle = 1
GPGPU-Sim PTX: Parsing cc_base.1.sm_75.ptx
GPGPU-Sim PTX: Warning -- ignoring pragma 'nounroll'
GPGPU-Sim PTX: instruction assembly for function '_Z4hookiPKmPKiPiPb'...   done.
GPGPU-Sim PTX: instruction assembly for function '_Z8shortcutiPi'...   done.
GPGPU-Sim PTX: finished parsing EMBEDDED .ptx file cc_base.1.sm_75.ptx
GPGPU-Sim PTX: loading globals with explicit initializers... 
GPGPU-Sim PTX: finished loading globals (0 bytes total).
GPGPU-Sim PTX: loading constants with explicit initializers...  done.
GPGPU-Sim PTX: Loading PTXInfo from cc_base.1.sm_75.ptx
GPGPU-Sim PTX: Kernel '_Z8shortcutiPi' : regs=12, lmem=0, smem=0, cmem=368
GPGPU-Sim PTX: Kernel '_Z4hookiPKmPKiPiPb' : regs=18, lmem=0, smem=0, cmem=392
GPGPU-Sim PTX: __cudaRegisterFunction _Z4hookiPKmPKiPiPb : hostFun 0x0x55aab2811c56, fat_cubin_handle = 1
Connected Component by Xuhao Chen
Reading (.mtx) input file ../CudaBenchmarks/gardenia/datasets/italy_osm.mtx
Removing redundent edges... 0 redundent edges are removed
|V| 6686493 |E| 14027956
This graph is symmetrized
Launching CUDA CC solver (26120 CTAs, 256 threads/CTA) ...
GPGPU-Sim PTX: Setting up arguments for 4 bytes starting at 0x7ffe4642b6ac..
GPGPU-Sim PTX: Setting up arguments for 8 bytes starting at 0x7ffe4642b6a0..
GPGPU-Sim PTX: Setting up arguments for 8 bytes starting at 0x7ffe4642b698..
GPGPU-Sim PTX: Setting up arguments for 8 bytes starting at 0x7ffe4642b690..
GPGPU-Sim PTX: Setting up arguments for 8 bytes starting at 0x7ffe4642b688..

GPGPU-Sim PTX: cudaLaunch for 0x0x55aab2811c56 (mode=performance simulation) on stream 0
GPGPU-Sim PTX: finding reconvergence points for '_Z4hookiPKmPKiPiPb'...
GPGPU-Sim PTX: Finding dominators for '_Z4hookiPKmPKiPiPb'...
GPGPU-Sim PTX: Finding immediate dominators for '_Z4hookiPKmPKiPiPb'...
GPGPU-Sim PTX: Finding postdominators for '_Z4hookiPKmPKiPiPb'...
GPGPU-Sim PTX: Finding immediate postdominators for '_Z4hookiPKmPKiPiPb'...
GPGPU-Sim PTX: pre-decoding instructions for '_Z4hookiPKmPKiPiPb'...
GPGPU-Sim PTX: reconvergence points for _Z4hookiPKmPKiPiPb...
GPGPU-Sim PTX:  1 (potential) branch divergence @  PC=0x068 (cc_base.1.sm_75.ptx:42) @%p1 bra $L__BB0_23;

GPGPU-Sim PTX:    immediate post dominator      @  PC=0x408 (cc_base.1.sm_75.ptx:201) ret;

GPGPU-Sim PTX:  2 (potential) branch divergence @  PC=0x0b8 (cc_base.1.sm_75.ptx:53) @%p2 bra $L__BB0_23;

GPGPU-Sim PTX:    immediate post dominator      @  PC=0x408 (cc_base.1.sm_75.ptx:201) ret;

GPGPU-Sim PTX:  3 (potential) branch divergence @  PC=0x0e0 (cc_base.1.sm_75.ptx:59) @%p3 bra $L__BB0_8;

GPGPU-Sim PTX:    immediate post dominator      @  PC=0x1b0 (cc_base.1.sm_75.ptx:97) not.b32 %r33, %r3;

GPGPU-Sim PTX:  4 (potential) branch divergence @  PC=0x130 (cc_base.1.sm_75.ptx:75) @%p4 bra $L__BB0_7;

GPGPU-Sim PTX:    immediate post dominator      @  PC=0x188 (cc_base.1.sm_75.ptx:90) add.s32 %r57, %r57, 1;

GPGPU-Sim PTX:  5 (potential) branch divergence @  PC=0x170 (cc_base.1.sm_75.ptx:84) @%p5 bra $L__BB0_7;

GPGPU-Sim PTX:    immediate post dominator      @  PC=0x188 (cc_base.1.sm_75.ptx:90) add.s32 %r57, %r57, 1;

GPGPU-Sim PTX:  6 (potential) branch divergence @  PC=0x1a8 (cc_base.1.sm_75.ptx:94) @%p6 bra $L__BB0_4;

GPGPU-Sim PTX:    immediate post dominator      @  PC=0x1b0 (cc_base.1.sm_75.ptx:97) not.b32 %r33, %r3;

GPGPU-Sim PTX:  7 (potential) branch divergence @  PC=0x1c8 (cc_base.1.sm_75.ptx:100) @%p7 bra $L__BB0_23;

GPGPU-Sim PTX:    immediate post dominator      @  PC=0x408 (cc_base.1.sm_75.ptx:201) ret;

GPGPU-Sim PTX:  8 (potential) branch divergence @  PC=0x210 (cc_base.1.sm_75.ptx:114) @%p8 bra $L__BB0_13;

GPGPU-Sim PTX:    immediate post dominator      @  PC=0x268 (cc_base.1.sm_75.ptx:129) ld.global.u32 %r41, [%rd42+4];

GPGPU-Sim PTX:  9 (potential) branch divergence @  PC=0x250 (cc_base.1.sm_75.ptx:123) @%p9 bra $L__BB0_13;

GPGPU-Sim PTX:    immediate post dominator      @  PC=0x268 (cc_base.1.sm_75.ptx:129) ld.global.u32 %r41, [%rd42+4];

GPGPU-Sim PTX: 10 (potential) branch divergence @  PC=0x290 (cc_base.1.sm_75.ptx:136) @%p10 bra $L__BB0_16;

GPGPU-Sim PTX:    immediate post dominator      @  PC=0x2e8 (cc_base.1.sm_75.ptx:151) ld.global.u32 %r46, [%rd42+8];

GPGPU-Sim PTX: 11 (potential) branch divergence @  PC=0x2d0 (cc_base.1.sm_75.ptx:145) @%p11 bra $L__BB0_16;

GPGPU-Sim PTX:    immediate post dominator      @  PC=0x2e8 (cc_base.1.sm_75.ptx:151) ld.global.u32 %r46, [%rd42+8];

GPGPU-Sim PTX: 12 (potential) branch divergence @  PC=0x310 (cc_base.1.sm_75.ptx:158) @%p12 bra $L__BB0_19;

GPGPU-Sim PTX:    immediate post dominator      @  PC=0x368 (cc_base.1.sm_75.ptx:173) ld.global.u32 %r51, [%rd42+12];

GPGPU-Sim PTX: 13 (potential) branch divergence @  PC=0x350 (cc_base.1.sm_75.ptx:167) @%p13 bra $L__BB0_19;

GPGPU-Sim PTX:    immediate post dominator      @  PC=0x368 (cc_base.1.sm_75.ptx:173) ld.global.u32 %r51, [%rd42+12];

GPGPU-Sim PTX: 14 (potential) branch divergence @  PC=0x390 (cc_base.1.sm_75.ptx:180) @%p14 bra $L__BB0_22;

GPGPU-Sim PTX:    immediate post dominator      @  PC=0x3e8 (cc_base.1.sm_75.ptx:195) add.s32 %r57, %r57, 4;

GPGPU-Sim PTX: 15 (potential) branch divergence @  PC=0x3d0 (cc_base.1.sm_75.ptx:189) @%p15 bra $L__BB0_22;

GPGPU-Sim PTX:    immediate post dominator      @  PC=0x3e8 (cc_base.1.sm_75.ptx:195) add.s32 %r57, %r57, 4;

GPGPU-Sim PTX: 16 (potential) branch divergence @  PC=0x400 (cc_base.1.sm_75.ptx:198) @%p16 bra $L__BB0_10;

GPGPU-Sim PTX:    immediate post dominator      @  PC=0x408 (cc_base.1.sm_75.ptx:201) ret;

GPGPU-Sim PTX: ... end of reconvergence points for _Z4hookiPKmPKiPiPb
GPGPU-Sim PTX: ... done pre-decoding instructions for '_Z4hookiPKmPKiPiPb'.
GPGPU-Sim PTX: pushing kernel '_Z4hookiPKmPKiPiPb' to stream 0, gridDim= (26120,1,1) blockDim = (256,1,1) 
GPGPU-Sim uArch: Shader 0 bind to kernel 1 '_Z4hookiPKmPKiPiPb'
GPGPU-Sim uArch: CTA/core = 4, limited by: threads
GPGPU-Sim: Reconfigure L1 cache to 64KB
GPGPU-Sim uArch: Shader 1 bind to kernel 1 '_Z4hookiPKmPKiPiPb'
GPGPU-Sim uArch: Shader 2 bind to kernel 1 '_Z4hookiPKmPKiPiPb'
GPGPU-Sim uArch: Shader 3 bind to kernel 1 '_Z4hookiPKmPKiPiPb'
GPGPU-Sim uArch: Shader 4 bind to kernel 1 '_Z4hookiPKmPKiPiPb'
GPGPU-Sim uArch: Shader 5 bind to kernel 1 '_Z4hookiPKmPKiPiPb'
GPGPU-Sim uArch: Shader 6 bind to kernel 1 '_Z4hookiPKmPKiPiPb'
GPGPU-Sim uArch: Shader 7 bind to kernel 1 '_Z4hookiPKmPKiPiPb'
GPGPU-Sim uArch: Shader 8 bind to kernel 1 '_Z4hookiPKmPKiPiPb'
GPGPU-Sim uArch: Shader 9 bind to kernel 1 '_Z4hookiPKmPKiPiPb'
GPGPU-Sim uArch: Shader 10 bind to kernel 1 '_Z4hookiPKmPKiPiPb'
GPGPU-Sim uArch: Shader 11 bind to kernel 1 '_Z4hookiPKmPKiPiPb'
GPGPU-Sim uArch: Shader 12 bind to kernel 1 '_Z4hookiPKmPKiPiPb'
GPGPU-Sim uArch: Shader 13 bind to kernel 1 '_Z4hookiPKmPKiPiPb'
GPGPU-Sim uArch: Shader 14 bind to kernel 1 '_Z4hookiPKmPKiPiPb'
GPGPU-Sim uArch: Shader 15 bind to kernel 1 '_Z4hookiPKmPKiPiPb'
GPGPU-Sim uArch: Shader 16 bind to kernel 1 '_Z4hookiPKmPKiPiPb'
GPGPU-Sim uArch: Shader 17 bind to kernel 1 '_Z4hookiPKmPKiPiPb'
GPGPU-Sim uArch: Shader 18 bind to kernel 1 '_Z4hookiPKmPKiPiPb'
GPGPU-Sim uArch: Shader 19 bind to kernel 1 '_Z4hookiPKmPKiPiPb'
GPGPU-Sim uArch: Shader 20 bind to kernel 1 '_Z4hookiPKmPKiPiPb'
GPGPU-Sim uArch: Shader 21 bind to kernel 1 '_Z4hookiPKmPKiPiPb'
GPGPU-Sim uArch: Shader 22 bind to kernel 1 '_Z4hookiPKmPKiPiPb'
GPGPU-Sim uArch: Shader 23 bind to kernel 1 '_Z4hookiPKmPKiPiPb'
GPGPU-Sim uArch: Shader 24 bind to kernel 1 '_Z4hookiPKmPKiPiPb'
GPGPU-Sim uArch: Shader 25 bind to kernel 1 '_Z4hookiPKmPKiPiPb'
GPGPU-Sim uArch: Shader 26 bind to kernel 1 '_Z4hookiPKmPKiPiPb'
GPGPU-Sim uArch: Shader 27 bind to kernel 1 '_Z4hookiPKmPKiPiPb'
GPGPU-Sim uArch: Shader 28 bind to kernel 1 '_Z4hookiPKmPKiPiPb'
GPGPU-Sim uArch: Shader 29 bind to kernel 1 '_Z4hookiPKmPKiPiPb'
Destroy streams for kernel 1: size 0
kernel_name = _Z4hookiPKmPKiPiPb 
kernel_launch_uid = 1 
gpu_sim_cycle = 997401
gpu_sim_insn = 444259632
gpu_ipc =     445.4173
gpu_tot_sim_cycle = 997401
gpu_tot_sim_insn = 444259632
gpu_tot_ipc =     445.4173
gpu_tot_issued_cta = 26120
gpu_occupancy = 68.9760% 
gpu_tot_occupancy = 68.9760% 
max_total_param_size = 0
gpu_stall_dramfull = 5253
gpu_stall_icnt2sh    = 0
partiton_level_parallism =       7.3709
partiton_level_parallism_total  =       7.3709
partiton_level_parallism_util =       7.4228
partiton_level_parallism_util_total  =       7.4228
L2_BW  =     321.9605 GB/Sec
L2_BW_total  =     321.9605 GB/Sec
gpu_total_sim_rate=41793

========= Core cache stats =========
L1I_cache:
	L1I_total_cache_accesses = 0
	L1I_total_cache_misses = 0
	L1I_total_cache_pending_hits = 0
	L1I_total_cache_reservation_fails = 0
L1D_cache:
	L1D_cache_core[0]: Access = 562127, Miss = 178003, Miss_rate = 0.317, Pending_hits = 67263, Reservation_fails = 106758
	L1D_cache_core[1]: Access = 563186, Miss = 177908, Miss_rate = 0.316, Pending_hits = 67434, Reservation_fails = 110645
	L1D_cache_core[2]: Access = 568596, Miss = 179817, Miss_rate = 0.316, Pending_hits = 68061, Reservation_fails = 111040
	L1D_cache_core[3]: Access = 563543, Miss = 177375, Miss_rate = 0.315, Pending_hits = 67152, Reservation_fails = 113302
	L1D_cache_core[4]: Access = 568048, Miss = 178967, Miss_rate = 0.315, Pending_hits = 68244, Reservation_fails = 114128
	L1D_cache_core[5]: Access = 575413, Miss = 181814, Miss_rate = 0.316, Pending_hits = 69468, Reservation_fails = 118338
	L1D_cache_core[6]: Access = 570110, Miss = 179671, Miss_rate = 0.315, Pending_hits = 68502, Reservation_fails = 115331
	L1D_cache_core[7]: Access = 564478, Miss = 177930, Miss_rate = 0.315, Pending_hits = 67492, Reservation_fails = 111646
	L1D_cache_core[8]: Access = 564695, Miss = 178342, Miss_rate = 0.316, Pending_hits = 67151, Reservation_fails = 104595
	L1D_cache_core[9]: Access = 567992, Miss = 179585, Miss_rate = 0.316, Pending_hits = 68025, Reservation_fails = 112201
	L1D_cache_core[10]: Access = 567504, Miss = 178145, Miss_rate = 0.314, Pending_hits = 67385, Reservation_fails = 106926
	L1D_cache_core[11]: Access = 566438, Miss = 178984, Miss_rate = 0.316, Pending_hits = 67721, Reservation_fails = 108889
	L1D_cache_core[12]: Access = 573128, Miss = 178802, Miss_rate = 0.312, Pending_hits = 67850, Reservation_fails = 111290
	L1D_cache_core[13]: Access = 568331, Miss = 180031, Miss_rate = 0.317, Pending_hits = 68577, Reservation_fails = 110360
	L1D_cache_core[14]: Access = 565593, Miss = 178237, Miss_rate = 0.315, Pending_hits = 67941, Reservation_fails = 107079
	L1D_cache_core[15]: Access = 564514, Miss = 177569, Miss_rate = 0.315, Pending_hits = 66594, Reservation_fails = 111445
	L1D_cache_core[16]: Access = 561702, Miss = 176317, Miss_rate = 0.314, Pending_hits = 65808, Reservation_fails = 107186
	L1D_cache_core[17]: Access = 569953, Miss = 180297, Miss_rate = 0.316, Pending_hits = 68948, Reservation_fails = 112575
	L1D_cache_core[18]: Access = 563417, Miss = 178153, Miss_rate = 0.316, Pending_hits = 67503, Reservation_fails = 106577
	L1D_cache_core[19]: Access = 560911, Miss = 177288, Miss_rate = 0.316, Pending_hits = 66724, Reservation_fails = 113334
	L1D_cache_core[20]: Access = 563876, Miss = 178229, Miss_rate = 0.316, Pending_hits = 67542, Reservation_fails = 111612
	L1D_cache_core[21]: Access = 572395, Miss = 180798, Miss_rate = 0.316, Pending_hits = 68425, Reservation_fails = 112936
	L1D_cache_core[22]: Access = 563447, Miss = 177723, Miss_rate = 0.315, Pending_hits = 67354, Reservation_fails = 115009
	L1D_cache_core[23]: Access = 562037, Miss = 176887, Miss_rate = 0.315, Pending_hits = 66832, Reservation_fails = 109016
	L1D_cache_core[24]: Access = 571532, Miss = 179538, Miss_rate = 0.314, Pending_hits = 67846, Reservation_fails = 107207
	L1D_cache_core[25]: Access = 568518, Miss = 179085, Miss_rate = 0.315, Pending_hits = 67765, Reservation_fails = 108546
	L1D_cache_core[26]: Access = 571044, Miss = 180252, Miss_rate = 0.316, Pending_hits = 68498, Reservation_fails = 107879
	L1D_cache_core[27]: Access = 567554, Miss = 179076, Miss_rate = 0.316, Pending_hits = 67808, Reservation_fails = 115143
	L1D_cache_core[28]: Access = 569693, Miss = 179862, Miss_rate = 0.316, Pending_hits = 68667, Reservation_fails = 114260
	L1D_cache_core[29]: Access = 567939, Miss = 179004, Miss_rate = 0.315, Pending_hits = 67861, Reservation_fails = 110975
	L1D_total_cache_accesses = 17007714
	L1D_total_cache_misses = 5363689
	L1D_total_cache_miss_rate = 0.3154
	L1D_total_cache_pending_hits = 2032441
	L1D_total_cache_reservation_fails = 3326228
	L1D_cache_data_port_util = 0.323
	L1D_cache_fill_port_util = 0.180
L1C_cache:
	L1C_total_cache_accesses = 0
	L1C_total_cache_misses = 0
	L1C_total_cache_pending_hits = 0
	L1C_total_cache_reservation_fails = 0
L1T_cache:
	L1T_total_cache_accesses = 0
	L1T_total_cache_misses = 0
	L1T_total_cache_pending_hits = 0
	L1T_total_cache_reservation_fails = 0

Total_core_cache_stats:
	Total_core_cache_stats_breakdown[GLOBAL_ACC_R][HIT] = 7623540
	Total_core_cache_stats_breakdown[GLOBAL_ACC_R][HIT_RESERVED] = 2032441
	Total_core_cache_stats_breakdown[GLOBAL_ACC_R][MISS] = 2007764
	Total_core_cache_stats_breakdown[GLOBAL_ACC_R][RESERVATION_FAIL] = 3322798
	Total_core_cache_stats_breakdown[GLOBAL_ACC_R][SECTOR_MISS] = 3355895
	Total_core_cache_stats_breakdown[GLOBAL_ACC_R][MSHR_HIT] = 2032441
	Total_core_cache_stats_breakdown[LOCAL_ACC_R][HIT] = 0
	Total_core_cache_stats_breakdown[LOCAL_ACC_R][HIT_RESERVED] = 0
	Total_core_cache_stats_breakdown[LOCAL_ACC_R][MISS] = 0
	Total_core_cache_stats_breakdown[LOCAL_ACC_R][RESERVATION_FAIL] = 0
	Total_core_cache_stats_breakdown[LOCAL_ACC_R][SECTOR_MISS] = 0
	Total_core_cache_stats_breakdown[LOCAL_ACC_R][MSHR_HIT] = 0
	Total_core_cache_stats_breakdown[CONST_ACC_R][HIT] = 0
	Total_core_cache_stats_breakdown[CONST_ACC_R][HIT_RESERVED] = 0
	Total_core_cache_stats_breakdown[CONST_ACC_R][MISS] = 0
	Total_core_cache_stats_breakdown[CONST_ACC_R][RESERVATION_FAIL] = 0
	Total_core_cache_stats_breakdown[CONST_ACC_R][SECTOR_MISS] = 0
	Total_core_cache_stats_breakdown[CONST_ACC_R][MSHR_HIT] = 0
	Total_core_cache_stats_breakdown[TEXTURE_ACC_R][HIT] = 0
	Total_core_cache_stats_breakdown[TEXTURE_ACC_R][HIT_RESERVED] = 0
	Total_core_cache_stats_breakdown[TEXTURE_ACC_R][MISS] = 0
	Total_core_cache_stats_breakdown[TEXTURE_ACC_R][RESERVATION_FAIL] = 0
	Total_core_cache_stats_breakdown[TEXTURE_ACC_R][SECTOR_MISS] = 0
	Total_core_cache_stats_breakdown[TEXTURE_ACC_R][MSHR_HIT] = 0
	Total_core_cache_stats_breakdown[GLOBAL_ACC_W][HIT] = 1988044
	Total_core_cache_stats_breakdown[GLOBAL_ACC_W][HIT_RESERVED] = 0
	Total_core_cache_stats_breakdown[GLOBAL_ACC_W][MISS] = 30
	Total_core_cache_stats_breakdown[GLOBAL_ACC_W][RESERVATION_FAIL] = 3430
	Total_core_cache_stats_breakdown[GLOBAL_ACC_W][SECTOR_MISS] = 0
	Total_core_cache_stats_breakdown[GLOBAL_ACC_W][MSHR_HIT] = 0
	Total_core_cache_stats_breakdown[LOCAL_ACC_W][HIT] = 0
	Total_core_cache_stats_breakdown[LOCAL_ACC_W][HIT_RESERVED] = 0
	Total_core_cache_stats_breakdown[LOCAL_ACC_W][MISS] = 0
	Total_core_cache_stats_breakdown[LOCAL_ACC_W][RESERVATION_FAIL] = 0
	Total_core_cache_stats_breakdown[LOCAL_ACC_W][SECTOR_MISS] = 0
	Total_core_cache_stats_breakdown[LOCAL_ACC_W][MSHR_HIT] = 0
	Total_core_cache_stats_breakdown[L1_WRBK_ACC][HIT] = 0
	Total_core_cache_stats_breakdown[L1_WRBK_ACC][HIT_RESERVED] = 0
	Total_core_cache_stats_breakdown[L1_WRBK_ACC][MISS] = 0
	Total_core_cache_stats_breakdown[L1_WRBK_ACC][RESERVATION_FAIL] = 0
	Total_core_cache_stats_breakdown[L1_WRBK_ACC][SECTOR_MISS] = 0
	Total_core_cache_stats_breakdown[L1_WRBK_ACC][MSHR_HIT] = 0
	Total_core_cache_stats_breakdown[L2_WRBK_ACC][HIT] = 0
	Total_core_cache_stats_breakdown[L2_WRBK_ACC][HIT_RESERVED] = 0
	Total_core_cache_stats_breakdown[L2_WRBK_ACC][MISS] = 0
	Total_core_cache_stats_breakdown[L2_WRBK_ACC][RESERVATION_FAIL] = 0
	Total_core_cache_stats_breakdown[L2_WRBK_ACC][SECTOR_MISS] = 0
	Total_core_cache_stats_breakdown[L2_WRBK_ACC][MSHR_HIT] = 0
	Total_core_cache_stats_breakdown[INST_ACC_R][HIT] = 0
	Total_core_cache_stats_breakdown[INST_ACC_R][HIT_RESERVED] = 0
	Total_core_cache_stats_breakdown[INST_ACC_R][MISS] = 0
	Total_core_cache_stats_breakdown[INST_ACC_R][RESERVATION_FAIL] = 0
	Total_core_cache_stats_breakdown[INST_ACC_R][SECTOR_MISS] = 0
	Total_core_cache_stats_breakdown[INST_ACC_R][MSHR_HIT] = 0
	Total_core_cache_stats_breakdown[L1_WR_ALLOC_R][HIT] = 0
	Total_core_cache_stats_breakdown[L1_WR_ALLOC_R][HIT_RESERVED] = 0
	Total_core_cache_stats_breakdown[L1_WR_ALLOC_R][MISS] = 0
	Total_core_cache_stats_breakdown[L1_WR_ALLOC_R][RESERVATION_FAIL] = 0
	Total_core_cache_stats_breakdown[L1_WR_ALLOC_R][SECTOR_MISS] = 0
	Total_core_cache_stats_breakdown[L1_WR_ALLOC_R][MSHR_HIT] = 0
	Total_core_cache_stats_breakdown[L2_WR_ALLOC_R][HIT] = 0
	Total_core_cache_stats_breakdown[L2_WR_ALLOC_R][HIT_RESERVED] = 0
	Total_core_cache_stats_breakdown[L2_WR_ALLOC_R][MISS] = 0
	Total_core_cache_stats_breakdown[L2_WR_ALLOC_R][RESERVATION_FAIL] = 0
	Total_core_cache_stats_breakdown[L2_WR_ALLOC_R][SECTOR_MISS] = 0
	Total_core_cache_stats_breakdown[L2_WR_ALLOC_R][MSHR_HIT] = 0
	Total_core_cache_stats_breakdown[GLOBAL_ACC_R][TOTAL_ACCESS] = 15019640
	Total_core_cache_stats_breakdown[GLOBAL_ACC_W][TOTAL_ACCESS] = 1988074

Total_core_cache_fail_stats:
	Total_core_cache_fail_stats_breakdown[GLOBAL_ACC_R][MISS_QUEUE_FULL] = 2842505
	Total_core_cache_fail_stats_breakdown[GLOBAL_ACC_R][MSHR_ENRTY_FAIL] = 480293
	Total_core_cache_fail_stats_breakdown[GLOBAL_ACC_W][MISS_QUEUE_FULL] = 3430
ctas_completed 26120, Shader 0 warp_id issue ditsribution:
warp_id:
0, 1, 2, 3, 4, 5, 6, 7, 8, 9, 10, 11, 12, 13, 14, 15, 16, 17, 18, 19, 20, 21, 22, 23, 24, 25, 26, 27, 28, 29, 30, 31, 
distro:
22001, 21828, 22278, 22192, 22531, 22128, 22723, 23118, 21580, 22763, 22426, 22201, 21718, 21960, 22835, 22056, 22265, 22729, 22643, 22324, 22608, 22178, 22439, 22894, 22636, 22410, 22389, 22518, 22418, 21838, 21395, 22029, 
gpgpu_n_tot_thrd_icount = 689343520
gpgpu_n_tot_w_icount = 21541985
gpgpu_n_stall_shd_mem = 3573077
gpgpu_n_mem_read_local = 0
gpgpu_n_mem_write_local = 0
gpgpu_n_mem_read_global = 5363659
gpgpu_n_mem_write_global = 1988074
gpgpu_n_mem_texture = 0
gpgpu_n_mem_const = 0
gpgpu_n_load_insn  = 56320725
gpgpu_n_store_insn = 13505304
gpgpu_n_shmem_insn = 0
gpgpu_n_sstarr_insn = 0
gpgpu_n_tex_insn = 0
gpgpu_n_const_mem_insn = 0
gpgpu_n_param_mem_insn = 33433600
gpgpu_n_shmem_bkconflict = 0
gpgpu_n_cache_bkconflict = 0
gpgpu_n_intrawarp_mshr_merge = 0
gpgpu_n_cmem_portconflict = 0
gpgpu_stall_shd_mem[c_mem][resource_stall] = 0
gpgpu_stall_shd_mem[s_mem][bk_conf] = 0
gpgpu_stall_shd_mem[gl_mem][resource_stall] = 1615712
gpgpu_stall_shd_mem[gl_mem][coal_stall] = 1957365
gpgpu_stall_shd_mem[gl_mem][data_port_stall] = 0
gpu_reg_bank_conflict_stalls = 0
Warp Occupancy Distribution:
Stall:4014478	W0_Idle:523966	W0_Scoreboard:92898435	W1:2664739	W2:1188988	W3:703698	W4:499001	W5:371702	W6:300498	W7:240160	W8:197693	W9:165681	W10:137518	W11:108867	W12:88281	W13:69021	W14:52749	W15:42670	W16:31691	W17:24448	W18:20955	W19:18710	W20:18690	W21:21441	W22:25452	W23:32456	W24:45546	W25:61714	W26:87510	W27:127480	W28:194949	W29:307694	W30:552380	W31:1064079	W32:12075524
single_issue_nums: WS0:5369472	WS1:5384774	WS2:5387345	WS3:5400394	
dual_issue_nums: WS0:0	WS1:0	WS2:0	WS3:0	
traffic_breakdown_coretomem[GLOBAL_ACC_R] = 42909272 {8:5363659,}
traffic_breakdown_coretomem[GLOBAL_ACC_W] = 79522960 {40:1988074,}
traffic_breakdown_memtocore[GLOBAL_ACC_R] = 214546360 {40:5363659,}
traffic_breakdown_memtocore[GLOBAL_ACC_W] = 15904592 {8:1988074,}
maxmflatency = 2213 
max_icnt2mem_latency = 899 
maxmrqlatency = 1670 
max_icnt2sh_latency = 177 
averagemflatency = 423 
avg_icnt2mem_latency = 57 
avg_mrq_latency = 88 
avg_icnt2sh_latency = 5 
mrq_lat_table:1005859 	100436 	162631 	300294 	620797 	879193 	1003988 	870122 	416361 	43533 	368 	0 	0 	0 	0 	0 	0 	0 	0 	0 	0 	0 	0 	0 	0 	0 	0 	0 	0 	0 	0 	0 	
dq_lat_table:0 	0 	0 	0 	0 	0 	0 	0 	0 	0 	0 	0 	0 	0 	0 	0 	0 	0 	0 	0 	0 	0 	0 	0 	0 	0 	0 	0 	0 	0 	0 	0 	
mf_lat_table:0 	0 	0 	0 	0 	0 	0 	1851618 	3717405 	1744668 	38040 	2 	0 	0 	0 	0 	0 	0 	0 	0 	0 	0 	0 	0 	0 	0 	0 	0 	0 	0 	0 	0 	
icnt2mem_lat_table:0 	0 	0 	0 	0 	5584884 	1543442 	171741 	43647 	8019 	0 	0 	0 	0 	0 	0 	0 	0 	0 	0 	0 	0 	0 	0 	
icnt2sh_lat_table:0 	5042742 	1230183 	608518 	331747 	121439 	16936 	168 	0 	0 	0 	0 	0 	0 	0 	0 	0 	0 	0 	0 	0 	0 	0 	0 	
mf_lat_pw_table:0 	0 	0 	0 	0 	0 	0 	1 	926 	64 	1 	0 	0 	0 	0 	0 	0 	0 	0 	0 	0 	0 	0 	0 	0 	0 	0 	0 	0 	0 	0 	0 	
maximum concurrent accesses to same row:
dram[0]:        64        64        64        64        64        64        64        64        64        64        64        64        64        64        64        64 
dram[1]:        64        64        64        64        64        64        64        64        64        64        64        64        64        64        64        64 
dram[2]:        64        64        64        64        64        64        64        64        64        64        64        64        64        64        64        64 
dram[3]:        64        64        64        64        64        64        64        64        64        64        64        64        64        64        64        64 
dram[4]:        64        64        64        64        64        64        64        64        64        64        64        64        64        64        64        64 
dram[5]:        64        64        64        64        64        64        64        64        64        64        64        64        64        64        64        64 
dram[6]:        64        64        64        64        64        64        64        64        64        64        64        64        64        64        64        64 
dram[7]:        64        64        64        64        64        64        64        64        64        64        64        64        64        64        64        64 
dram[8]:        64        64        64        64        64        64        64        64        64        64        64        64        64        64        64        64 
dram[9]:        64        64        64        64        64        64        64        64        64        64        64        64        64        64        64        64 
dram[10]:        64        64        64        64        64        64        64        64        64        64        64        64        64        64        64        64 
dram[11]:        64        64        64        64        64        64        64        64        64        64        64        64        64        64        64        64 
maximum service time to same row:
dram[0]:      5804      5815      7087      7081      7207      7191      7299      7310      7390      7399      5822      5627      5791      5628      5798      5756 
dram[1]:      5859      5859      7080      7115      7195      7251      7329      7354      7482      7492      5688      5718      5689      5719      5777      5778 
dram[2]:      5837      5825      7032      7090      7163      7210      7238      7318      7342      7427      5596      5657      5597      5658      5787      5822 
dram[3]:      5845      5846      7170      7181      7278      7272      7492      7475      7539      7517      5769      5769      5770      5771      5832      5833 
dram[4]:      5805      5816      7097      7117      7185      7201      7294      7313      7394      7461      5822      5627      5791      5629      5799      5757 
dram[5]:      5858      5859      7094      7111      7202      7231      7325      7331      7456      7516      5688      5718      5690      5720      5778      5779 
dram[6]:      5838      5826      7031      7113      7165      7199      7262      7415      7399      7550      5596      5657      5598      5659      5788      5822 
dram[7]:      5847      5847      7149      7198      7269      7266      7489      7461      7521      7634      5769      5769      5771      5771      5832      5833 
dram[8]:      5805      5816      7099      7106      7195      7201      7373      7307      7560      7507      5822      5627      5791      5629      5799      5757 
dram[9]:      5858      5859      7062      7090      7174      7225      7305      7344      7528      7562      5688      5718      5690      5720      5778      5779 
dram[10]:      5838      5826      7069      7126      7183      7228      7311      7354      7389      7437      5596      5657      5598      5659      5788      5822 
dram[11]:      5847      5847      7159      7171      7269      7324      7463      7463      7461      7681      5769      5769      5771      5771      5832      5833 
average row accesses per activate:
dram[0]:  4.131251  4.166543  4.091187  4.092288  4.151269  4.189445  3.878915  3.898922  4.081325  4.102348  4.131420  4.166420  4.105256  4.237324  4.119223  4.197572 
dram[1]:  4.111306  4.227727  4.104543  4.079486  4.084373  4.062251  3.939230  4.000000  4.094622  4.179911  4.187528  4.236945  4.176373  4.222508  4.153105  4.203821 
dram[2]:  4.228380  4.269402  4.013162  4.101683  4.015056  4.119913  4.057478  4.057389  4.083188  4.073178  4.143215  4.152289  4.084519  4.085054  4.157270  4.166988 
dram[3]:  4.236666  4.219464  3.970960  4.055151  4.196650  4.152046  3.941111  4.239921  4.001842  4.029345  4.146125  4.185532  4.149754  4.190897  4.156886  4.197958 
dram[4]:  4.105471  4.252788  3.996071  4.083081  4.139538  4.101286  4.110442  4.113230  4.091832  4.053674  4.206669  4.115183  4.159088  4.116906  4.221634  4.223160 
dram[5]:  4.168878  4.261103  4.081038  4.123738  4.109669  4.151969  4.152374  4.116932  3.976845  4.054603  4.160101  4.163407  4.106445  4.208748  4.174805  4.136471 
dram[6]:  4.293982  4.231260  4.033585  4.034943  4.033107  4.120556  4.100866  4.126521  4.044343  4.053687  4.246583  4.204791  4.166915  4.116571  4.087520  4.188769 
dram[7]:  4.250306  4.251862  4.033010  4.059768  4.133009  4.165707  4.051744  3.977359  4.021246  4.090857  4.172845  4.243345  4.124981  4.154917  4.150806  4.225382 
dram[8]:  4.202028  4.190768  4.061828  4.081894  4.107560  4.108289  3.946182  4.060281  3.991682  4.153687  4.089938  4.362053  4.152051  4.247291  4.175011  4.092094 
dram[9]:  4.161189  4.174010  3.989999  4.119720  4.097366  4.081897  4.047996  3.959379  4.158270  4.152675  4.183299  4.085005  4.217491  4.201324  4.155513  4.126249 
dram[10]:  4.141609  4.106111  4.018521  4.111386  4.091237  4.162465  3.900260  4.070259  4.040758  4.248442  4.063228  4.134870  4.205171  4.193563  4.150796  4.187463 
dram[11]:  4.072313  4.220411  4.066849  4.097190  4.155310  4.238225  3.909453  3.988001  4.006485  4.162677  4.126302  4.257030  4.107341  4.111209  4.068169  4.189529 
average row locality = 5403582/1311224 = 4.121021
number of total memory accesses made:
dram[0]:         0         0         0         0         0         0         0         0         0         0         0         0         0         0         0         0 
dram[1]:         0         0         0         0         0         0         0         0         0         0         0         0         0         0         0         0 
dram[2]:         0         0         0         0         0         0         0         0         0         0         0         0         0         0         0         0 
dram[3]:         0         0         0         0         0         0         0         0         0         0         0         0         0         0         0         0 
dram[4]:         0         0         0         0         0         0         0         0         0         0         0         0         0         0         0         0 
dram[5]:         0         0         0         0         0         0         0         0         0         0         0         0         0         0         0         0 
dram[6]:         0         0         0         0         0         0         0         0         0         0         0         0         0         0         0         0 
dram[7]:         0         0         0         0         0         0         0         0         0         0         0         0         0         0         0         0 
dram[8]:         0         0         0         0         0         0         0         0         0         0         0         0         0         0         0         0 
dram[9]:         0         0         0         0         0         0         0         0         0         0         0         0         0         0         0         0 
dram[10]:         0         0         0         0         0         0         0         0         0         0         0         0         0         0         0         0 
dram[11]:         0         0         0         0         0         0         0         0         0         0         0         0         0         0         0         0 
total accesses: 0
min_bank_accesses = 0!
min_chip_accesses = 0!
number of total read accesses:
dram[0]:     25698     25637     25723     25812     25689     25762     26069     26005     25679     25803     25620     25692     25553     25530     25550     25561 
dram[1]:     25680     25515     25743     25821     25910     25919     25884     26061     25735     25680     25650     25640     25502     25465     25572     25553 
dram[2]:     25384     25392     25842     25813     25949     25825     25890     25792     25668     25824     25636     25649     25655     25634     25612     25629 
dram[3]:     25417     25472     26026     25902     25649     25731     25852     25523     25743     25763     25611     25700     25466     25581     25570     25546 
dram[4]:     25594     25483     25948     25845     25718     25875     25586     25616     25728     25734     25578     25783     25484     25649     25537     25614 
dram[5]:     25558     25461     25708     25754     25709     25794     25563     25698     25818     25840     25669     25662     25564     25516     25513     25607 
dram[6]:     25469     25471     25823     25858     25981     25684     25538     25687     25788     25789     25588     25662     25570     25687     25607     25595 
dram[7]:     25424     25558     25766     25825     25625     25741     25677     25967     25741     25834     25584     25612     25644     25642     25605     25555 
dram[8]:     25410     25574     25823     25857     25711     25796     25946     25833     25790     25615     25770     25461     25532     25476     25535     25797 
dram[9]:     25483     25705     25839     25832     25688     25872     25693     25984     25557     25639     25598     25831     25374     25514     25557     25616 
dram[10]:     25570     25775     25916     25768     25769     25759     25954     25817     25837     25597     25770     25748     25463     25551     25712     25647 
dram[11]:     25792     25573     25825     25823     25704     25578     25898     26008     25869     25689     25683     25573     25617     25636     25720     25548 
total dram reads = 4932159
bank skew: 26069/25374 = 1.03
chip skew: 411653/410434 = 1.00
number of total write accesses:
dram[0]:      6075      6028      6027      6142      6040      6133      6224      6188      6019      6155      6026      6004      6007      6087      6003      6051 
dram[1]:      6085      5936      6097      6107      6200      6254      6174      6183      6042      5991      5994      6026      5998      6016      6044      6001 
dram[2]:      5927      5966      6139      6095      6235      6175      6125      6084      5997      6058      6017      6033      6095      6089      6011      6018 
dram[3]:      5951      6009      6199      6074      5990      6120      6116      5902      6100      6118      6051      6058      5969      5998      6006      5996 
dram[4]:      6092      5921      6153      6081      6046      6164      5983      6007      6089      6094      6032      6130      6011      6057      5965      6028 
dram[5]:      5993      5908      6044      6059      6064      6071      5990      6037      6143      6155      6024      6053      6003      5977      5946      6010 
dram[6]:      5904      5945      6155      6186      6158      6066      5990      6040      6113      6133      5970      6003      5993      6046      6029      6044 
dram[7]:      5952      5992      6046      6110      6002      6092      6012      6135      6061      6074      6052      6057      6026      6020      6036      5962 
dram[8]:      5921      6070      6112      6114      6015      6100      6204      6129      6159      6054      6180      5929      6011      5947      5946      6118 
dram[9]:      5924      6022      6100      6047      6051      6150      6050      6216      6060      6031      5954      6107      5923      5985      6055      6085 
dram[10]:      5974      6110      6139      6058      6164      6077      6210      6175      6135      5961      6110      6039      5928      6077      6061      5988 
dram[11]:      6120      5965      6083      6049      6080      5954      6154      6243      6192      6044      6050      5990      6072      6069      6078      6044 
total dram writes = 1162974
bank skew: 6254/5902 = 1.06
chip skew: 97209/96477 = 1.01
average mf latency per bank:
dram[0]:        509       487       506       481       511       492       513       494       508       492       502       488       493       476       502       483
dram[1]:        489       485       476       480       496       491       489       498       485       491       478       481       471       473       485       480
dram[2]:        480       488       480       487       495       494       491       495       488       494       476       489       476       481       484       489
dram[3]:        482       494       486       495       489       499       482       496       490       504       482       493       470       492       480       495
dram[4]:        499       479       501       477       507       490       504       487       505       488       499       475       489       473       499       483
dram[5]:        475       480       468       475       486       490       482       488       483       489       473       473       468       469       474       481
dram[6]:        476       480       474       479       486       485       484       485       485       492       476       484       473       482       479       489
dram[7]:        481       494       476       497       480       498       484       509       488       507       477       491       478       486       480       496
dram[8]:        500       487       501       482       502       492       513       495       505       495       504       485       495       478       507       487
dram[9]:        491       496       489       488       498       489       499       495       503       495       492       489      4640       482       496       490
dram[10]:        486       491       485       484       489       496       494       499       490       492       482       486       474       481       488       492
dram[11]:        492       498       485       493       488       501       492       510       495       503       480       494       479       492       487       499
maximum mf latency per bank:
dram[0]:       1647      1509      1845      1590      1548      1545      1610      1555      1771      1789      1433      1855      1350      1418      1491      1490
dram[1]:       1389      1554      1506      1548      1631      1690      1521      1646      2160      1673      1568      1428      1424      1356      1579      1502
dram[2]:       1494      1468      2213      1489      1556      1521      1533      1421      1480      1636      1292      1439      1531      1648      1559      1641
dram[3]:       1409      1621      1602      1560      1631      1633      1653      1641      1687      1775      1576      1629      1330      1455      1517      1598
dram[4]:       1565      1559      1546      1779      1671      1584      1566      1578      1738      1791      1595      1563      1496      1636      1506      1447
dram[5]:       1403      1494      1675      1540      1562      1660      1573      1597      1578      1717      1601      1499      1241      1519      1505      1425
dram[6]:       1584      1547      1661      1488      1558      1638      1370      1729      1509      1789      1385      1675      1374      1416      1593      1572
dram[7]:       1544      1550      1586      1592      1620      1632      1712      1645      1717      1634      1494      1548      1656      1439      1476      1868
dram[8]:       1513      1555      1577      1550      1571      1591      1589      1598      1760      1891      1400      1542      1391      1369      1636      1580
dram[9]:       1443      1814      1529      1558      1585      1570      1571      1616      1655      1721      1713      1432      1262      1602      1822      1494
dram[10]:       1511      1511      1570      1645      1540      1549      1420      1409      1486      1790      1448      1682      1339      1698      1520      1913
dram[11]:       1479      1597      1592      1613      1663      1638      2046      1969      1520      1698      1539      1722      1387      1488      1651      1464

Number of Memory Banks Accessed per Memory Operation per Warp (from 0):
0	0	0	0	0	0	0	0	0	0	0	0	0	0	0	0	0	0	0	0	0	0	0	0	0	0	0	0	0	0	0	0	0	0	0	0	0	0	0	0	0	0	0	0	0	0	0	0	0	0	0	0	0	0	0	0	0	0	0	0	0	0	0	0	0	0	0	0	0	0	0	0	0	0	0	0	0	0	0	0	0	0	0	0	0	0	0	0	0	0	0	0	0	0	0	0	0	0	0	0	0	0	0	0	0	0	0	0	0	0	0	0	0	0	0	0	0	0	0	0	0	0	0	0	0	0	0	0	0	0	0	0	0	0	0	0	0	0	0	0	0	0	0	0	0	0	0	0	0	0	0	0	0	0	0	0	0	0	0	0	0	0	0	0	0	0	0	0	0	0	0	0	0	0	0	0	0	0	0	0	0	0	0	0	0	0	0	0	0	0	0	0	
Average # of Memory Banks Accessed per Memory Operation per Warp=-nan

position of mrq chosen
0	0	0	0	0	0	0	0	0	0	0	0	0	0	0	0	0	0	0	0	0	0	0	0	0	0	0	0	0	0	0	0	0	0	0	0	0	0	0	0	0	0	0	0	0	0	0	0	0	0	0	0	0	0	0	0	0	0	0	0	0	0	0	0	

average position of mrq chosen = -nan
Memory Partition 0: 
Cache L2_bank_000:
MSHR contents

Cache L2_bank_001:
MSHR contents

In Dram Latency Queue (total = 0): 
DRAM[0]: 16 bks, busW=2 BL=16 CL=24, tRRD=12 tCCD=4, tRCD=24 tRAS=55 tRP=24 tRC=78
n_cmd=2557802 n_nop=1849811 n_act=109820 n_pre=109804 n_ref_event=0 n_req=450897 n_rd=411383 n_rd_L2_A=0 n_write=0 n_wr_bk=97209 bw_util=0.7954
n_activity=2534656 dram_eff=0.8026
bk0: 25698a 1230229i bk1: 25637a 1223297i bk2: 25723a 1211832i bk3: 25812a 1174915i bk4: 25689a 1229079i bk5: 25762a 1198075i bk6: 26069a 1163187i bk7: 26005a 1154082i bk8: 25679a 1240452i bk9: 25803a 1204083i bk10: 25620a 1226904i bk11: 25692a 1195289i bk12: 25553a 1230904i bk13: 25530a 1215152i bk14: 25550a 1237759i bk15: 25561a 1217166i 

------------------------------------------------------------------------

Row_Buffer_Locality = 0.756459
Row_Buffer_Locality_read = 0.812416
Row_Buffer_Locality_write = 0.173888
Bank_Level_Parallism = 8.703291
Bank_Level_Parallism_Col = 1.000000
Bank_Level_Parallism_Ready = 2.322844
write_to_read_ratio_blp_rw_average = 0.000000
GrpLevelPara = 0.000000 

BW Util details:
bwutil = 0.795358 
total_CMD = 2557802 
util_bw = 2034368 
Wasted_Col = 480715 
Wasted_Row = 12787 
Idle = 29932 

BW Util Bottlenecks: 
RCDc_limit = 436337 
RCDWRc_limit = 98540 
WTRc_limit = 628604 
RTWc_limit = 1315131 
CCDLc_limit = 367954 
rwq = 0 
CCDLc_limit_alone = 211918 
WTRc_limit_alone = 592114 
RTWc_limit_alone = 1195585 

Commands details: 
total_CMD = 2557802 
n_nop = 1849811 
Read = 411383 
Write = 0 
L2_Alloc = 0 
L2_WB = 97209 
n_act = 109820 
n_pre = 109804 
n_ref = 0 
n_req = 450897 
total_req = 508592 

Dual Bus Interface Util: 
issued_total_row = 219624 
issued_total_col = 508592 
Row_Bus_Util =  0.085864 
CoL_Bus_Util = 0.198839 
Either_Row_CoL_Bus_Util = 0.276797 
Issued_on_Two_Bus_Simul_Util = 0.007907 
issued_two_Eff = 0.028567 
queue_avg = 39.987801 


dram_util_bins: 0 0 0 0 0 0 0 0 0 0
dram_eff_bins: 0 0 0 0 0 0 0 0 0 0
mrqq: max=64 avg=39.9878
Memory Partition 1: 
Cache L2_bank_002:
MSHR contents

Cache L2_bank_003:
MSHR contents

In Dram Latency Queue (total = 0): 
DRAM[1]: 16 bks, busW=2 BL=16 CL=24, tRRD=12 tCCD=4, tRCD=24 tRAS=55 tRP=24 tRC=78
n_cmd=2557802 n_nop=1850953 n_act=109224 n_pre=109208 n_ref_event=0 n_req=450706 n_rd=411330 n_rd_L2_A=0 n_write=0 n_wr_bk=97148 bw_util=0.7952
n_activity=2534388 dram_eff=0.8025
bk0: 25680a 1214204i bk1: 25515a 1240634i bk2: 25743a 1221552i bk3: 25821a 1189063i bk4: 25910a 1187974i bk5: 25919a 1150384i bk6: 25884a 1183789i bk7: 26061a 1160062i bk8: 25735a 1243808i bk9: 25680a 1242883i bk10: 25650a 1243743i bk11: 25640a 1222262i bk12: 25502a 1269570i bk13: 25465a 1253198i bk14: 25572a 1234888i bk15: 25553a 1260877i 

------------------------------------------------------------------------

Row_Buffer_Locality = 0.757678
Row_Buffer_Locality_read = 0.813554
Row_Buffer_Locality_write = 0.173989
Bank_Level_Parallism = 8.638289
Bank_Level_Parallism_Col = 6.635753
Bank_Level_Parallism_Ready = 2.316347
write_to_read_ratio_blp_rw_average = 0.456239
GrpLevelPara = 3.424682 

BW Util details:
bwutil = 0.795180 
total_CMD = 2557802 
util_bw = 2033912 
Wasted_Col = 479965 
Wasted_Row = 13744 
Idle = 30181 

BW Util Bottlenecks: 
RCDc_limit = 432468 
RCDWRc_limit = 98166 
WTRc_limit = 624131 
RTWc_limit = 1309030 
CCDLc_limit = 368429 
rwq = 0 
CCDLc_limit_alone = 211698 
WTRc_limit_alone = 587090 
RTWc_limit_alone = 1189340 

Commands details: 
total_CMD = 2557802 
n_nop = 1850953 
Read = 411330 
Write = 0 
L2_Alloc = 0 
L2_WB = 97148 
n_act = 109224 
n_pre = 109208 
n_ref = 0 
n_req = 450706 
total_req = 508478 

Dual Bus Interface Util: 
issued_total_row = 218432 
issued_total_col = 508478 
Row_Bus_Util =  0.085398 
CoL_Bus_Util = 0.198795 
Either_Row_CoL_Bus_Util = 0.276350 
Issued_on_Two_Bus_Simul_Util = 0.007843 
issued_two_Eff = 0.028381 
queue_avg = 39.997234 


dram_util_bins: 0 0 0 0 0 0 0 0 0 0
dram_eff_bins: 0 0 0 0 0 0 0 0 0 0
mrqq: max=64 avg=39.9972
Memory Partition 2: 
Cache L2_bank_004:
MSHR contents

Cache L2_bank_005:
MSHR contents

In Dram Latency Queue (total = 0): 
DRAM[2]: 16 bks, busW=2 BL=16 CL=24, tRRD=12 tCCD=4, tRCD=24 tRAS=55 tRP=24 tRC=78
n_cmd=2557802 n_nop=1850528 n_act=109603 n_pre=109587 n_ref_event=0 n_req=450595 n_rd=411194 n_rd_L2_A=0 n_write=0 n_wr_bk=97064 bw_util=0.7948
n_activity=2534415 dram_eff=0.8022
bk0: 25384a 1260580i bk1: 25392a 1238240i bk2: 25842a 1183272i bk3: 25813a 1189810i bk4: 25949a 1149981i bk5: 25825a 1172968i bk6: 25890a 1208463i bk7: 25792a 1201765i bk8: 25668a 1252241i bk9: 25824a 1210538i bk10: 25636a 1253459i bk11: 25649a 1200759i bk12: 25655a 1217178i bk13: 25634a 1203160i bk14: 25612a 1250152i bk15: 25629a 1220255i 

------------------------------------------------------------------------

Row_Buffer_Locality = 0.756777
Row_Buffer_Locality_read = 0.812813
Row_Buffer_Locality_write = 0.171975
Bank_Level_Parallism = 8.680460
Bank_Level_Parallism_Col = 6.663231
Bank_Level_Parallism_Ready = 2.330850
write_to_read_ratio_blp_rw_average = 0.455572
GrpLevelPara = 3.427157 

BW Util details:
bwutil = 0.794836 
total_CMD = 2557802 
util_bw = 2033032 
Wasted_Col = 480469 
Wasted_Row = 14077 
Idle = 30224 

BW Util Bottlenecks: 
RCDc_limit = 436866 
RCDWRc_limit = 97094 
WTRc_limit = 625256 
RTWc_limit = 1294681 
CCDLc_limit = 365408 
rwq = 0 
CCDLc_limit_alone = 209770 
WTRc_limit_alone = 589289 
RTWc_limit_alone = 1175010 

Commands details: 
total_CMD = 2557802 
n_nop = 1850528 
Read = 411194 
Write = 0 
L2_Alloc = 0 
L2_WB = 97064 
n_act = 109603 
n_pre = 109587 
n_ref = 0 
n_req = 450595 
total_req = 508258 

Dual Bus Interface Util: 
issued_total_row = 219190 
issued_total_col = 508258 
Row_Bus_Util =  0.085695 
CoL_Bus_Util = 0.198709 
Either_Row_CoL_Bus_Util = 0.276516 
Issued_on_Two_Bus_Simul_Util = 0.007887 
issued_two_Eff = 0.028524 
queue_avg = 40.184772 


dram_util_bins: 0 0 0 0 0 0 0 0 0 0
dram_eff_bins: 0 0 0 0 0 0 0 0 0 0
mrqq: max=64 avg=40.1848
Memory Partition 3: 
Cache L2_bank_006:
MSHR contents

Cache L2_bank_007:
MSHR contents

In Dram Latency Queue (total = 0): 
DRAM[3]: 16 bks, busW=2 BL=16 CL=24, tRRD=12 tCCD=4, tRCD=24 tRAS=55 tRP=24 tRC=78
n_cmd=2557802 n_nop=1852910 n_act=108993 n_pre=108977 n_ref_event=0 n_req=449733 n_rd=410552 n_rd_L2_A=0 n_write=0 n_wr_bk=96657 bw_util=0.7932
n_activity=2533416 dram_eff=0.8008
bk0: 25417a 1260587i bk1: 25472a 1229553i bk2: 26026a 1165895i bk3: 25902a 1184054i bk4: 25649a 1225306i bk5: 25731a 1198729i bk6: 25852a 1212069i bk7: 25523a 1259839i bk8: 25743a 1200681i bk9: 25763a 1200030i bk10: 25611a 1221649i bk11: 25700a 1201866i bk12: 25466a 1247440i bk13: 25581a 1218669i bk14: 25570a 1240957i bk15: 25546a 1243903i 

------------------------------------------------------------------------

Row_Buffer_Locality = 0.757667
Row_Buffer_Locality_read = 0.813758
Row_Buffer_Locality_write = 0.169929
Bank_Level_Parallism = 8.644224
Bank_Level_Parallism_Col = 6.655780
Bank_Level_Parallism_Ready = 2.326092
write_to_read_ratio_blp_rw_average = 0.457505
GrpLevelPara = 3.423509 

BW Util details:
bwutil = 0.793195 
total_CMD = 2557802 
util_bw = 2028836 
Wasted_Col = 482905 
Wasted_Row = 14811 
Idle = 31250 

BW Util Bottlenecks: 
RCDc_limit = 434866 
RCDWRc_limit = 97740 
WTRc_limit = 620962 
RTWc_limit = 1309972 
CCDLc_limit = 363680 
rwq = 0 
CCDLc_limit_alone = 210832 
WTRc_limit_alone = 585951 
RTWc_limit_alone = 1192135 

Commands details: 
total_CMD = 2557802 
n_nop = 1852910 
Read = 410552 
Write = 0 
L2_Alloc = 0 
L2_WB = 96657 
n_act = 108993 
n_pre = 108977 
n_ref = 0 
n_req = 449733 
total_req = 507209 

Dual Bus Interface Util: 
issued_total_row = 217970 
issued_total_col = 507209 
Row_Bus_Util =  0.085218 
CoL_Bus_Util = 0.198299 
Either_Row_CoL_Bus_Util = 0.275585 
Issued_on_Two_Bus_Simul_Util = 0.007931 
issued_two_Eff = 0.028780 
queue_avg = 39.764503 


dram_util_bins: 0 0 0 0 0 0 0 0 0 0
dram_eff_bins: 0 0 0 0 0 0 0 0 0 0
mrqq: max=64 avg=39.7645
Memory Partition 4: 
Cache L2_bank_008:
MSHR contents

Cache L2_bank_009:
MSHR contents

In Dram Latency Queue (total = 0): 
DRAM[4]: 16 bks, busW=2 BL=16 CL=24, tRRD=12 tCCD=4, tRCD=24 tRAS=55 tRP=24 tRC=78
n_cmd=2557802 n_nop=1852332 n_act=108970 n_pre=108954 n_ref_event=0 n_req=449931 n_rd=410772 n_rd_L2_A=0 n_write=0 n_wr_bk=96853 bw_util=0.7938
n_activity=2534498 dram_eff=0.8011
bk0: 25594a 1230686i bk1: 25483a 1257162i bk2: 25948a 1173716i bk3: 25845a 1186841i bk4: 25718a 1238302i bk5: 25875a 1180043i bk6: 25586a 1262249i bk7: 25616a 1220782i bk8: 25728a 1243212i bk9: 25734a 1195108i bk10: 25578a 1235958i bk11: 25783a 1193354i bk12: 25484a 1238695i bk13: 25649a 1200127i bk14: 25537a 1246451i bk15: 25614a 1221962i 

------------------------------------------------------------------------

Row_Buffer_Locality = 0.757825
Row_Buffer_Locality_read = 0.813683
Row_Buffer_Locality_write = 0.171889
Bank_Level_Parallism = 8.638529
Bank_Level_Parallism_Col = 6.646359
Bank_Level_Parallism_Ready = 2.326474
write_to_read_ratio_blp_rw_average = 0.453251
GrpLevelPara = 3.415216 

BW Util details:
bwutil = 0.793846 
total_CMD = 2557802 
util_bw = 2030500 
Wasted_Col = 481178 
Wasted_Row = 15366 
Idle = 30758 

BW Util Bottlenecks: 
RCDc_limit = 433246 
RCDWRc_limit = 98146 
WTRc_limit = 628224 
RTWc_limit = 1286017 
CCDLc_limit = 361902 
rwq = 0 
CCDLc_limit_alone = 208957 
WTRc_limit_alone = 591690 
RTWc_limit_alone = 1169606 

Commands details: 
total_CMD = 2557802 
n_nop = 1852332 
Read = 410772 
Write = 0 
L2_Alloc = 0 
L2_WB = 96853 
n_act = 108970 
n_pre = 108954 
n_ref = 0 
n_req = 449931 
total_req = 507625 

Dual Bus Interface Util: 
issued_total_row = 217924 
issued_total_col = 507625 
Row_Bus_Util =  0.085200 
CoL_Bus_Util = 0.198461 
Either_Row_CoL_Bus_Util = 0.275811 
Issued_on_Two_Bus_Simul_Util = 0.007850 
issued_two_Eff = 0.028462 
queue_avg = 39.326248 


dram_util_bins: 0 0 0 0 0 0 0 0 0 0
dram_eff_bins: 0 0 0 0 0 0 0 0 0 0
mrqq: max=64 avg=39.3262
Memory Partition 5: 
Cache L2_bank_010:
MSHR contents

Cache L2_bank_011:
MSHR contents

In Dram Latency Queue (total = 0): 
DRAM[5]: 16 bks, busW=2 BL=16 CL=24, tRRD=12 tCCD=4, tRCD=24 tRAS=55 tRP=24 tRC=78
n_cmd=2557802 n_nop=1853480 n_act=108735 n_pre=108719 n_ref_event=0 n_req=449365 n_rd=410434 n_rd_L2_A=0 n_write=0 n_wr_bk=96477 bw_util=0.7927
n_activity=2534311 dram_eff=0.8001
bk0: 25558a 1241834i bk1: 25461a 1240123i bk2: 25708a 1225867i bk3: 25754a 1214945i bk4: 25709a 1199217i bk5: 25794a 1191872i bk6: 25563a 1255816i bk7: 25698a 1232776i bk8: 25818a 1216815i bk9: 25840a 1193896i bk10: 25669a 1230283i bk11: 25662a 1232334i bk12: 25564a 1230062i bk13: 25516a 1230107i bk14: 25513a 1263849i bk15: 25607a 1212602i 

------------------------------------------------------------------------

Row_Buffer_Locality = 0.758043
Row_Buffer_Locality_read = 0.813714
Row_Buffer_Locality_write = 0.171123
Bank_Level_Parallism = 8.603089
Bank_Level_Parallism_Col = 6.615732
Bank_Level_Parallism_Ready = 2.312815
write_to_read_ratio_blp_rw_average = 0.453791
GrpLevelPara = 3.418052 

BW Util details:
bwutil = 0.792729 
total_CMD = 2557802 
util_bw = 2027644 
Wasted_Col = 483985 
Wasted_Row = 15506 
Idle = 30667 

BW Util Bottlenecks: 
RCDc_limit = 435092 
RCDWRc_limit = 97508 
WTRc_limit = 630258 
RTWc_limit = 1292080 
CCDLc_limit = 367242 
rwq = 0 
CCDLc_limit_alone = 214070 
WTRc_limit_alone = 593571 
RTWc_limit_alone = 1175595 

Commands details: 
total_CMD = 2557802 
n_nop = 1853480 
Read = 410434 
Write = 0 
L2_Alloc = 0 
L2_WB = 96477 
n_act = 108735 
n_pre = 108719 
n_ref = 0 
n_req = 449365 
total_req = 506911 

Dual Bus Interface Util: 
issued_total_row = 217454 
issued_total_col = 506911 
Row_Bus_Util =  0.085016 
CoL_Bus_Util = 0.198182 
Either_Row_CoL_Bus_Util = 0.275362 
Issued_on_Two_Bus_Simul_Util = 0.007836 
issued_two_Eff = 0.028457 
queue_avg = 39.244450 


dram_util_bins: 0 0 0 0 0 0 0 0 0 0
dram_eff_bins: 0 0 0 0 0 0 0 0 0 0
mrqq: max=64 avg=39.2444
Memory Partition 6: 
Cache L2_bank_012:
MSHR contents

Cache L2_bank_013:
MSHR contents

In Dram Latency Queue (total = 0): 
DRAM[6]: 16 bks, busW=2 BL=16 CL=24, tRRD=12 tCCD=4, tRCD=24 tRAS=55 tRP=24 tRC=78
n_cmd=2557802 n_nop=1852476 n_act=109019 n_pre=109003 n_ref_event=0 n_req=450019 n_rd=410797 n_rd_L2_A=0 n_write=0 n_wr_bk=96775 bw_util=0.7938
n_activity=2534260 dram_eff=0.8011
bk0: 25469a 1265215i bk1: 25471a 1252294i bk2: 25823a 1175192i bk3: 25858a 1172331i bk4: 25981a 1185500i bk5: 25684a 1184593i bk6: 25538a 1253624i bk7: 25687a 1251035i bk8: 25788a 1223549i bk9: 25789a 1189235i bk10: 25588a 1263847i bk11: 25662a 1226445i bk12: 25570a 1244916i bk13: 25687a 1207078i bk14: 25607a 1237572i bk15: 25595a 1203825i 

------------------------------------------------------------------------

Row_Buffer_Locality = 0.757764
Row_Buffer_Locality_read = 0.813769
[...]
RCDc_limit = 2908094 
RCDWRc_limit = 279927 
WTRc_limit = 1599473 
RTWc_limit = 2795646 
CCDLc_limit = 1538396 
rwq = 0 
CCDLc_limit_alone = 1224931 
WTRc_limit_alone = 1506855 
RTWc_limit_alone = 2574799 

Commands details: 
total_CMD = 19247721 
n_nop = 14230997 
Read = 3398626 
Write = 0 
L2_Alloc = 0 
L2_WB = 450372 
n_act = 640067 
n_pre = 640051 
n_ref = 0 
n_req = 3534091 
total_req = 3848998 

Dual Bus Interface Util: 
issued_total_row = 1280118 
issued_total_col = 3848998 
Row_Bus_Util =  0.066508 
CoL_Bus_Util = 0.199972 
Either_Row_CoL_Bus_Util = 0.260640 
Issued_on_Two_Bus_Simul_Util = 0.005839 
issued_two_Eff = 0.022403 
queue_avg = 26.545786 


dram_util_bins: 0 0 0 0 0 0 0 0 0 0
dram_eff_bins: 0 0 0 0 0 0 0 0 0 0
mrqq: max=64 avg=26.5458
Memory Partition 7: 
Cache L2_bank_014:
MSHR contents

Cache L2_bank_015:
MSHR contents

In Dram Latency Queue (total = 0): 
DRAM[7]: 16 bks, busW=2 BL=16 CL=24, tRRD=12 tCCD=4, tRCD=24 tRAS=55 tRP=24 tRC=78
n_cmd=19247721 n_nop=14228336 n_act=641570 n_pre=641554 n_ref_event=0 n_req=3534373 n_rd=3398810 n_rd_L2_A=0 n_write=0 n_wr_bk=450504 bw_util=0.8
n_activity=18760109 dram_eff=0.8207
bk0: 210405a 12831997i bk1: 211521a 12619515i bk2: 213058a 12557609i bk3: 213494a 12341225i bk4: 212194a 12628665i bk5: 213004a 12425099i bk6: 212324a 12693028i bk7: 214687a 12393443i bk8: 212975a 12660049i bk9: 213535a 12543372i bk10: 211694a 12765042i bk11: 211707a 12644438i bk12: 212215a 12722033i bk13: 212293a 12546840i bk14: 212037a 12702120i bk15: 211667a 12615625i 

------------------------------------------------------------------------

Row_Buffer_Locality = 0.818479
Row_Buffer_Locality_read = 0.834263
Row_Buffer_Locality_write = 0.422741
Bank_Level_Parallism = 5.919191
Bank_Level_Parallism_Col = 4.597204
Bank_Level_Parallism_Ready = 2.285453
write_to_read_ratio_blp_rw_average = 0.214280
GrpLevelPara = 2.965514 

BW Util details:
bwutil = 0.799952 
total_CMD = 19247721 
util_bw = 15397256 
Wasted_Col = 2887652 
Wasted_Row = 283570 
Idle = 679243 

BW Util Bottlenecks: 
RCDc_limit = 2912328 
RCDWRc_limit = 282545 
WTRc_limit = 1600733 
RTWc_limit = 2845963 
CCDLc_limit = 1552933 
rwq = 0 
CCDLc_limit_alone = 1230398 
WTRc_limit_alone = 1507565 
RTWc_limit_alone = 2616596 

Commands details: 
total_CMD = 19247721 
n_nop = 14228336 
Read = 3398810 
Write = 0 
L2_Alloc = 0 
L2_WB = 450504 
n_act = 641570 
n_pre = 641554 
n_ref = 0 
n_req = 3534373 
total_req = 3849314 

Dual Bus Interface Util: 
issued_total_row = 1283124 
issued_total_col = 3849314 
Row_Bus_Util =  0.066664 
CoL_Bus_Util = 0.199988 
Either_Row_CoL_Bus_Util = 0.260778 
Issued_on_Two_Bus_Simul_Util = 0.005874 
issued_two_Eff = 0.022523 
queue_avg = 26.713331 


dram_util_bins: 0 0 0 0 0 0 0 0 0 0
dram_eff_bins: 0 0 0 0 0 0 0 0 0 0
mrqq: max=64 avg=26.7133
Memory Partition 8: 
Cache L2_bank_016:
MSHR contents

Cache L2_bank_017:
MSHR contents

In Dram Latency Queue (total = 0): 
DRAM[8]: 16 bks, busW=2 BL=16 CL=24, tRRD=12 tCCD=4, tRCD=24 tRAS=55 tRP=24 tRC=78
n_cmd=19247721 n_nop=14227796 n_act=641420 n_pre=641404 n_ref_event=0 n_req=3534673 n_rd=3398909 n_rd_L2_A=0 n_write=0 n_wr_bk=450800 bw_util=0.8
n_activity=18757363 dram_eff=0.8209
bk0: 210410a 12839477i bk1: 211499a 12594424i bk2: 213695a 12560368i bk3: 213847a 12375234i bk4: 212716a 12641228i bk5: 213263a 12402926i bk6: 214261a 12565599i bk7: 213580a 12512517i bk8: 212912a 12694186i bk9: 211782a 12679141i bk10: 212830a 12692502i bk11: 210870a 12726270i bk12: 211346a 12835010i bk13: 211111a 12663288i bk14: 211396a 12797319i bk15: 213391a 12505152i 

------------------------------------------------------------------------

Row_Buffer_Locality = 0.818537
Row_Buffer_Locality_read = 0.834332
Row_Buffer_Locality_write = 0.423109
Bank_Level_Parallism = 5.895259
Bank_Level_Parallism_Col = 4.571181
Bank_Level_Parallism_Ready = 2.267918
write_to_read_ratio_blp_rw_average = 0.212962
GrpLevelPara = 2.956300 

BW Util details:
bwutil = 0.800034 
total_CMD = 19247721 
util_bw = 15398836 
Wasted_Col = 2896138 
Wasted_Row = 276409 
Idle = 676338 

BW Util Bottlenecks: 
RCDc_limit = 2915600 
RCDWRc_limit = 282057 
WTRc_limit = 1601076 
RTWc_limit = 2824689 
CCDLc_limit = 1574884 
rwq = 0 
CCDLc_limit_alone = 1253949 
WTRc_limit_alone = 1507333 
RTWc_limit_alone = 2597497 

Commands details: 
total_CMD = 19247721 
n_nop = 14227796 
Read = 3398909 
Write = 0 
L2_Alloc = 0 
L2_WB = 450800 
n_act = 641420 
n_pre = 641404 
n_ref = 0 
n_req = 3534673 
total_req = 3849709 

Dual Bus Interface Util: 
issued_total_row = 1282824 
issued_total_col = 3849709 
Row_Bus_Util =  0.066648 
CoL_Bus_Util = 0.200009 
Either_Row_CoL_Bus_Util = 0.260806 
Issued_on_Two_Bus_Simul_Util = 0.005850 
issued_two_Eff = 0.022432 
queue_avg = 26.414354 


dram_util_bins: 0 0 0 0 0 0 0 0 0 0
dram_eff_bins: 0 0 0 0 0 0 0 0 0 0
mrqq: max=64 avg=26.4144
Memory Partition 9: 
Cache L2_bank_018:
MSHR contents

Cache L2_bank_019:
MSHR contents

In Dram Latency Queue (total = 0): 
DRAM[9]: 16 bks, busW=2 BL=16 CL=24, tRRD=12 tCCD=4, tRCD=24 tRAS=55 tRP=24 tRC=78
n_cmd=19247721 n_nop=14230982 n_act=639915 n_pre=639899 n_ref_event=0 n_req=3533883 n_rd=3398387 n_rd_L2_A=0 n_write=0 n_wr_bk=450304 bw_util=0.7998
n_activity=18761460 dram_eff=0.8206
bk0: 210952a 12836000i bk1: 212661a 12543051i bk2: 213620a 12576968i bk3: 213882a 12400737i bk4: 212433a 12619239i bk5: 213895a 12321018i bk6: 212799a 12635179i bk7: 214502a 12439545i bk8: 211383a 12798274i bk9: 211903a 12674766i bk10: 211764a 12833249i bk11: 213552a 12487131i bk12: 210240a 12902493i bk13: 211261a 12641234i bk14: 211548a 12767422i bk15: 211992a 12581972i 

------------------------------------------------------------------------

Row_Buffer_Locality = 0.818922
Row_Buffer_Locality_read = 0.834616
Row_Buffer_Locality_write = 0.425304
Bank_Level_Parallism = 5.898165
Bank_Level_Parallism_Col = 4.587835
Bank_Level_Parallism_Ready = 2.276699
write_to_read_ratio_blp_rw_average = 0.214033
GrpLevelPara = 2.962002 

BW Util details:
bwutil = 0.799823 
total_CMD = 19247721 
util_bw = 15394764 
Wasted_Col = 2896041 
Wasted_Row = 279310 
Idle = 677606 

BW Util Bottlenecks: 
RCDc_limit = 2907051 
RCDWRc_limit = 282239 
WTRc_limit = 1599376 
RTWc_limit = 2874858 
CCDLc_limit = 1555192 
rwq = 0 
CCDLc_limit_alone = 1231910 
WTRc_limit_alone = 1506129 
RTWc_limit_alone = 2644823 

Commands details: 
total_CMD = 19247721 
n_nop = 14230982 
Read = 3398387 
Write = 0 
L2_Alloc = 0 
L2_WB = 450304 
n_act = 639915 
n_pre = 639899 
n_ref = 0 
n_req = 3533883 
total_req = 3848691 

Dual Bus Interface Util: 
issued_total_row = 1279814 
issued_total_col = 3848691 
Row_Bus_Util =  0.066492 
CoL_Bus_Util = 0.199956 
Either_Row_CoL_Bus_Util = 0.260641 
Issued_on_Two_Bus_Simul_Util = 0.005807 
issued_two_Eff = 0.022279 
queue_avg = 26.587950 


dram_util_bins: 0 0 0 0 0 0 0 0 0 0
dram_eff_bins: 0 0 0 0 0 0 0 0 0 0
mrqq: max=64 avg=26.5879
Memory Partition 10: 
Cache L2_bank_020:
MSHR contents

Cache L2_bank_021:
MSHR contents

In Dram Latency Queue (total = 0): 
DRAM[10]: 16 bks, busW=2 BL=16 CL=24, tRRD=12 tCCD=4, tRCD=24 tRAS=55 tRP=24 tRC=78
n_cmd=19247721 n_nop=14219758 n_act=643386 n_pre=643370 n_ref_event=0 n_req=3540521 n_rd=3404828 n_rd_L2_A=0 n_write=0 n_wr_bk=450089 bw_util=0.8011
n_activity=18750579 dram_eff=0.8224
bk0: 211588a 12761348i bk1: 213100a 12487243i bk2: 214270a 12476893i bk3: 213158a 12400311i bk4: 212944a 12563458i bk5: 213217a 12392338i bk6: 214377a 12519703i bk7: 213453a 12525348i bk8: 213517a 12669322i bk9: 211659a 12746416i bk10: 213034a 12689261i bk11: 212962a 12506496i bk12: 211056a 12880001i bk13: 211414a 12611138i bk14: 212837a 12672662i bk15: 212242a 12596990i 

------------------------------------------------------------------------

Row_Buffer_Locality = 0.818282
Row_Buffer_Locality_read = 0.833916
Row_Buffer_Locality_write = 0.425976
Bank_Level_Parallism = 5.930342
Bank_Level_Parallism_Col = 4.605963
Bank_Level_Parallism_Ready = 2.282772
write_to_read_ratio_blp_rw_average = 0.212751
GrpLevelPara = 2.970923 

BW Util details:
bwutil = 0.801117 
total_CMD = 19247721 
util_bw = 15419668 
Wasted_Col = 2866343 
Wasted_Row = 277492 
Idle = 684218 

BW Util Bottlenecks: 
RCDc_limit = 2898870 
RCDWRc_limit = 279177 
WTRc_limit = 1618629 
RTWc_limit = 2810074 
CCDLc_limit = 1536766 
rwq = 0 
CCDLc_limit_alone = 1221297 
WTRc_limit_alone = 1525916 
RTWc_limit_alone = 2587318 

Commands details: 
total_CMD = 19247721 
n_nop = 14219758 
Read = 3404828 
Write = 0 
L2_Alloc = 0 
L2_WB = 450089 
n_act = 643386 
n_pre = 643370 
n_ref = 0 
n_req = 3540521 
total_req = 3854917 

Dual Bus Interface Util: 
issued_total_row = 1286756 
issued_total_col = 3854917 
Row_Bus_Util =  0.066852 
CoL_Bus_Util = 0.200279 
Either_Row_CoL_Bus_Util = 0.261224 
Issued_on_Two_Bus_Simul_Util = 0.005908 
issued_two_Eff = 0.022616 
queue_avg = 26.733604 


dram_util_bins: 0 0 0 0 0 0 0 0 0 0
dram_eff_bins: 0 0 0 0 0 0 0 0 0 0
mrqq: max=64 avg=26.7336
Memory Partition 11: 
Cache L2_bank_022:
MSHR contents

Cache L2_bank_023:
MSHR contents

In Dram Latency Queue (total = 0): 
DRAM[11]: 16 bks, busW=2 BL=16 CL=24, tRRD=12 tCCD=4, tRCD=24 tRAS=55 tRP=24 tRC=78
n_cmd=19247721 n_nop=14224113 n_act=642090 n_pre=642074 n_ref_event=0 n_req=3538629 n_rd=3402966 n_rd_L2_A=0 n_write=0 n_wr_bk=450070 bw_util=0.8007
n_activity=18756104 dram_eff=0.8217
bk0: 213197a 12626939i bk1: 211411a 12667382i bk2: 213624a 12591137i bk3: 213503a 12430282i bk4: 212776a 12605622i bk5: 211709a 12544585i bk6: 213963a 12562833i bk7: 214664a 12402392i bk8: 213581a 12641488i bk9: 212490a 12595871i bk10: 212307a 12764144i bk11: 211571a 12662198i bk12: 211997a 12730726i bk13: 211995a 12570086i bk14: 212848a 12655585i bk15: 211330a 12645739i 

------------------------------------------------------------------------

Row_Buffer_Locality = 0.818551
Row_Buffer_Locality_read = 0.834108
Row_Buffer_Locality_write = 0.428304
Bank_Level_Parallism = 5.920183
Bank_Level_Parallism_Col = 4.594787
Bank_Level_Parallism_Ready = 2.283283
write_to_read_ratio_blp_rw_average = 0.213130
GrpLevelPara = 2.965297 

BW Util details:
bwutil = 0.800726 
total_CMD = 19247721 
util_bw = 15412144 
Wasted_Col = 2873934 
Wasted_Row = 278757 
Idle = 682886 

BW Util Bottlenecks: 
RCDc_limit = 2892436 
RCDWRc_limit = 278260 
WTRc_limit = 1593846 
RTWc_limit = 2838052 
CCDLc_limit = 1546219 
rwq = 0 
CCDLc_limit_alone = 1227789 
WTRc_limit_alone = 1501057 
RTWc_limit_alone = 2612411 

Commands details: 
total_CMD = 19247721 
n_nop = 14224113 
Read = 3402966 
Write = 0 
L2_Alloc = 0 
L2_WB = 450070 
n_act = 642090 
n_pre = 642074 
n_ref = 0 
n_req = 3538629 
total_req = 3853036 

Dual Bus Interface Util: 
issued_total_row = 1284164 
issued_total_col = 3853036 
Row_Bus_Util =  0.066718 
CoL_Bus_Util = 0.200181 
Either_Row_CoL_Bus_Util = 0.260998 
Issued_on_Two_Bus_Simul_Util = 0.005902 
issued_two_Eff = 0.022612 
queue_avg = 26.700615 


dram_util_bins: 0 0 0 0 0 0 0 0 0 0
dram_eff_bins: 0 0 0 0 0 0 0 0 0 0
mrqq: max=64 avg=26.7006

========= L2 cache stats =========
L2_cache_bank[0]: Access = 2364495, Miss = 1700813, Miss_rate = 0.719, Pending_hits = 68134, Reservation_fails = 3422
L2_cache_bank[1]: Access = 2318270, Miss = 1702342, Miss_rate = 0.734, Pending_hits = 10986, Reservation_fails = 2248
L2_cache_bank[2]: Access = 2308778, Miss = 1701933, Miss_rate = 0.737, Pending_hits = 10889, Reservation_fails = 3341
L2_cache_bank[3]: Access = 2304216, Miss = 1701444, Miss_rate = 0.738, Pending_hits = 11129, Reservation_fails = 3779
L2_cache_bank[4]: Access = 2310523, Miss = 1701553, Miss_rate = 0.736, Pending_hits = 10991, Reservation_fails = 2813
L2_cache_bank[5]: Access = 2306693, Miss = 1700383, Miss_rate = 0.737, Pending_hits = 11240, Reservation_fails = 873
L2_cache_bank[6]: Access = 2311677, Miss = 1698659, Miss_rate = 0.735, Pending_hits = 10751, Reservation_fails = 2187
L2_cache_bank[7]: Access = 2375062, Miss = 1697385, Miss_rate = 0.715, Pending_hits = 11303, Reservation_fails = 1121
L2_cache_bank[8]: Access = 2357994, Miss = 1696631, Miss_rate = 0.720, Pending_hits = 68233, Reservation_fails = 2249
L2_cache_bank[9]: Access = 2322617, Miss = 1701098, Miss_rate = 0.732, Pending_hits = 11551, Reservation_fails = 3876
L2_cache_bank[10]: Access = 2310304, Miss = 1696759, Miss_rate = 0.734, Pending_hits = 11276, Reservation_fails = 2032
L2_cache_bank[11]: Access = 2302562, Miss = 1698730, Miss_rate = 0.738, Pending_hits = 10850, Reservation_fails = 2314
L2_cache_bank[12]: Access = 2306878, Miss = 1699310, Miss_rate = 0.737, Pending_hits = 10886, Reservation_fails = 1993
L2_cache_bank[13]: Access = 2305259, Miss = 1699321, Miss_rate = 0.737, Pending_hits = 10942, Reservation_fails = 1615
L2_cache_bank[14]: Access = 2311384, Miss = 1696907, Miss_rate = 0.734, Pending_hits = 11126, Reservation_fails = 2140
L2_cache_bank[15]: Access = 2385649, Miss = 1701908, Miss_rate = 0.713, Pending_hits = 11504, Reservation_fails = 2953
L2_cache_bank[16]: Access = 2357019, Miss = 1699567, Miss_rate = 0.721, Pending_hits = 67999, Reservation_fails = 1779
L2_cache_bank[17]: Access = 2323339, Miss = 1699345, Miss_rate = 0.731, Pending_hits = 11294, Reservation_fails = 2046
L2_cache_bank[18]: Access = 2898955, Miss = 1694757, Miss_rate = 0.585, Pending_hits = 10798, Reservation_fails = 2260
L2_cache_bank[19]: Access = 2311958, Miss = 1703649, Miss_rate = 0.737, Pending_hits = 11325, Reservation_fails = 2045
L2_cache_bank[20]: Access = 2308108, Miss = 1703625, Miss_rate = 0.738, Pending_hits = 11217, Reservation_fails = 2709
L2_cache_bank[21]: Access = 2307434, Miss = 1701207, Miss_rate = 0.737, Pending_hits = 11043, Reservation_fails = 2740
L2_cache_bank[22]: Access = 2315660, Miss = 1704295, Miss_rate = 0.736, Pending_hits = 10918, Reservation_fails = 3261
L2_cache_bank[23]: Access = 2376277, Miss = 1698674, Miss_rate = 0.715, Pending_hits = 11320, Reservation_fails = 3072
L2_total_cache_accesses = 56401111
L2_total_cache_misses = 40800295
L2_total_cache_miss_rate = 0.7234
L2_total_cache_pending_hits = 437705
L2_total_cache_reservation_fails = 58868
L2_total_cache_breakdown:
	L2_cache_stats_breakdown[GLOBAL_ACC_R][HIT] = 3737594
	L2_cache_stats_breakdown[GLOBAL_ACC_R][HIT_RESERVED] = 437705
	L2_cache_stats_breakdown[GLOBAL_ACC_R][MISS] = 12838338
	L2_cache_stats_breakdown[GLOBAL_ACC_R][RESERVATION_FAIL] = 58868
	L2_cache_stats_breakdown[GLOBAL_ACC_R][SECTOR_MISS] = 27961892
	L2_cache_stats_breakdown[GLOBAL_ACC_R][MSHR_HIT] = 437705
	L2_cache_stats_breakdown[LOCAL_ACC_R][HIT] = 0
	L2_cache_stats_breakdown[LOCAL_ACC_R][HIT_RESERVED] = 0
	L2_cache_stats_breakdown[LOCAL_ACC_R][MISS] = 0
	L2_cache_stats_breakdown[LOCAL_ACC_R][RESERVATION_FAIL] = 0
	L2_cache_stats_breakdown[LOCAL_ACC_R][SECTOR_MISS] = 0
	L2_cache_stats_breakdown[LOCAL_ACC_R][MSHR_HIT] = 0
	L2_cache_stats_breakdown[CONST_ACC_R][HIT] = 0
	L2_cache_stats_breakdown[CONST_ACC_R][HIT_RESERVED] = 0
	L2_cache_stats_breakdown[CONST_ACC_R][MISS] = 0
	L2_cache_stats_breakdown[CONST_ACC_R][RESERVATION_FAIL] = 0
	L2_cache_stats_breakdown[CONST_ACC_R][SECTOR_MISS] = 0
	L2_cache_stats_breakdown[CONST_ACC_R][MSHR_HIT] = 0
	L2_cache_stats_breakdown[TEXTURE_ACC_R][HIT] = 0
	L2_cache_stats_breakdown[TEXTURE_ACC_R][HIT_RESERVED] = 0
	L2_cache_stats_breakdown[TEXTURE_ACC_R][MISS] = 0
	L2_cache_stats_breakdown[TEXTURE_ACC_R][RESERVATION_FAIL] = 0
	L2_cache_stats_breakdown[TEXTURE_ACC_R][SECTOR_MISS] = 0
	L2_cache_stats_breakdown[TEXTURE_ACC_R][MSHR_HIT] = 0
	L2_cache_stats_breakdown[GLOBAL_ACC_W][HIT] = 11425517
	L2_cache_stats_breakdown[GLOBAL_ACC_W][HIT_RESERVED] = 0
	L2_cache_stats_breakdown[GLOBAL_ACC_W][MISS] = 53
	L2_cache_stats_breakdown[GLOBAL_ACC_W][RESERVATION_FAIL] = 0
	L2_cache_stats_breakdown[GLOBAL_ACC_W][SECTOR_MISS] = 12
	L2_cache_stats_breakdown[GLOBAL_ACC_W][MSHR_HIT] = 0
	L2_cache_stats_breakdown[LOCAL_ACC_W][HIT] = 0
	L2_cache_stats_breakdown[LOCAL_ACC_W][HIT_RESERVED] = 0
	L2_cache_stats_breakdown[LOCAL_ACC_W][MISS] = 0
	L2_cache_stats_breakdown[LOCAL_ACC_W][RESERVATION_FAIL] = 0
	L2_cache_stats_breakdown[LOCAL_ACC_W][SECTOR_MISS] = 0
	L2_cache_stats_breakdown[LOCAL_ACC_W][MSHR_HIT] = 0
	L2_cache_stats_breakdown[L1_WRBK_ACC][HIT] = 0
	L2_cache_stats_breakdown[L1_WRBK_ACC][HIT_RESERVED] = 0
	L2_cache_stats_breakdown[L1_WRBK_ACC][MISS] = 0
	L2_cache_stats_breakdown[L1_WRBK_ACC][RESERVATION_FAIL] = 0
	L2_cache_stats_breakdown[L1_WRBK_ACC][SECTOR_MISS] = 0
	L2_cache_stats_breakdown[L1_WRBK_ACC][MSHR_HIT] = 0
	L2_cache_stats_breakdown[L2_WRBK_ACC][HIT] = 0
	L2_cache_stats_breakdown[L2_WRBK_ACC][HIT_RESERVED] = 0
	L2_cache_stats_breakdown[L2_WRBK_ACC][MISS] = 0
	L2_cache_stats_breakdown[L2_WRBK_ACC][RESERVATION_FAIL] = 0
	L2_cache_stats_breakdown[L2_WRBK_ACC][SECTOR_MISS] = 0
	L2_cache_stats_breakdown[L2_WRBK_ACC][MSHR_HIT] = 0
	L2_cache_stats_breakdown[INST_ACC_R][HIT] = 0
	L2_cache_stats_breakdown[INST_ACC_R][HIT_RESERVED] = 0
	L2_cache_stats_breakdown[INST_ACC_R][MISS] = 0
	L2_cache_stats_breakdown[INST_ACC_R][RESERVATION_FAIL] = 0
	L2_cache_stats_breakdown[INST_ACC_R][SECTOR_MISS] = 0
	L2_cache_stats_breakdown[INST_ACC_R][MSHR_HIT] = 0
	L2_cache_stats_breakdown[L1_WR_ALLOC_R][HIT] = 0
	L2_cache_stats_breakdown[L1_WR_ALLOC_R][HIT_RESERVED] = 0
	L2_cache_stats_breakdown[L1_WR_ALLOC_R][MISS] = 0
	L2_cache_stats_breakdown[L1_WR_ALLOC_R][RESERVATION_FAIL] = 0
	L2_cache_stats_breakdown[L1_WR_ALLOC_R][SECTOR_MISS] = 0
	L2_cache_stats_breakdown[L1_WR_ALLOC_R][MSHR_HIT] = 0
	L2_cache_stats_breakdown[L2_WR_ALLOC_R][HIT] = 0
	L2_cache_stats_breakdown[L2_WR_ALLOC_R][HIT_RESERVED] = 0
	L2_cache_stats_breakdown[L2_WR_ALLOC_R][MISS] = 0
	L2_cache_stats_breakdown[L2_WR_ALLOC_R][RESERVATION_FAIL] = 0
	L2_cache_stats_breakdown[L2_WR_ALLOC_R][SECTOR_MISS] = 0
	L2_cache_stats_breakdown[L2_WR_ALLOC_R][MSHR_HIT] = 0
	L2_cache_stats_breakdown[GLOBAL_ACC_R][TOTAL_ACCESS] = 44975529
	L2_cache_stats_breakdown[GLOBAL_ACC_W][TOTAL_ACCESS] = 11425582
L2_total_cache_reservation_fail_breakdown:
	L2_cache_stats_fail_breakdown[GLOBAL_ACC_R][MISS_QUEUE_FULL] = 3
	L2_cache_stats_fail_breakdown[GLOBAL_ACC_R][MSHR_ENRTY_FAIL] = 1136
	L2_cache_stats_fail_breakdown[GLOBAL_ACC_R][MSHR_MERGE_ENRTY_FAIL] = 57729
L2_cache_data_port_util = 0.084
L2_cache_fill_port_util = 0.227

icnt_total_pkts_mem_to_simt=56401111
icnt_total_pkts_simt_to_mem=56401111
LD_mem_lat_dist  0 0 0 0 0 0 0 0 0 0 0 0 0 0 0 0 0 0 0 0 0 0 0 0 0 0 0
ST_mem_lat_dist  0 0 0 0 0 0 0 0 0 0 0 0 0 0 0 0 0 0 0 0 0 0 0 0 0 0 0
----------------------------Interconnect-DETAILS--------------------------------
Req_Network_injected_packets_num = 56401111
Req_Network_cycles = 7505550
Req_Network_injected_packets_per_cycle =       7.5146 
Req_Network_conflicts_per_cycle =       2.5598
Req_Network_conflicts_per_cycle_util =       2.5937
Req_Bank_Level_Parallism =       7.6142
Req_Network_in_buffer_full_per_cycle =       0.0004
Req_Network_in_buffer_avg_util =       5.3401
Req_Network_out_buffer_full_per_cycle =       0.0000
Req_Network_out_buffer_avg_util =       0.4328

Reply_Network_injected_packets_num = 56401111
Reply_Network_cycles = 7505550
Reply_Network_injected_packets_per_cycle =        7.5146
Reply_Network_conflicts_per_cycle =        6.7937
Reply_Network_conflicts_per_cycle_util =       6.8784
Reply_Bank_Level_Parallism =       7.6083
Reply_Network_in_buffer_full_per_cycle =       0.0000
Reply_Network_in_buffer_avg_util =       1.8461
Reply_Network_out_buffer_full_per_cycle =       0.0000
Reply_Network_out_buffer_avg_util =       0.2505
----------------------------END-of-Interconnect-DETAILS-------------------------


gpgpu_simulation_time = 0 days, 22 hrs, 42 min, 35 sec (81755 sec)
gpgpu_simulation_rate = 48043 (inst/sec)
gpgpu_simulation_rate = 91 (cycle/sec)
gpgpu_silicon_slowdown = 15000000x
GPGPU-Sim: synchronize waiting for inactive GPU simulation
GPGPU-Sim API: Stream Manager State
GPGPU-Sim: detected inactive GPU simulation thread
	iterations = 7.
	runtime [cuda_base] = 81713495.029000 ms.
Verifying...
	runtime [serial] = 965.854000 ms.
Correct
GPGPU-Sim: *** exit detected ***
