

        *** GPGPU-Sim Simulator Version 4.2.0  [build gpgpu-sim_git-commit-5e9d31b8132651796656877ecb58fde27177ba7a_modified_315.0] ***


GPGPU-Sim PTX: simulation mode 0 (can change with PTX_SIM_MODE_FUNC environment variable:
               1=functional simulation only, 0=detailed performance simulator)
GPGPU-Sim PTX: overriding embedded ptx with ptx file (PTX_SIM_USE_PTX_FILE is set)
GPGPU-Sim: Configuration options:

-save_embedded_ptx                      0 # saves ptx files embedded in binary as <n>.ptx
-keep                                   0 # keep intermediate files created by GPGPU-Sim when interfacing with external programs
-gpgpu_ptx_save_converted_ptxplus                    0 # Saved converted ptxplus to a file
-gpgpu_occupancy_sm_number                   75 # The SM number to pass to ptxas when getting register usage for computing GPU occupancy. This parameter is required in the config.
-ptx_opcode_latency_int           4,4,4,4,21 # Opcode latencies for integers <ADD,MAX,MUL,MAD,DIV,SHFL>Default 1,1,19,25,145,32
-ptx_opcode_latency_fp           4,4,4,4,39 # Opcode latencies for single precision floating points <ADD,MAX,MUL,MAD,DIV>Default 1,1,1,1,30
-ptx_opcode_latency_dp      64,64,64,64,330 # Opcode latencies for double precision floating points <ADD,MAX,MUL,MAD,DIV>Default 8,8,8,8,335
-ptx_opcode_latency_sfu                   21 # Opcode latencies for SFU instructionsDefault 8
-ptx_opcode_latency_tesnor                   64 # Opcode latencies for Tensor instructionsDefault 64
-ptx_opcode_initiation_int            2,2,2,2,2 # Opcode initiation intervals for integers <ADD,MAX,MUL,MAD,DIV,SHFL>Default 1,1,4,4,32,4
-ptx_opcode_initiation_fp            2,2,2,2,4 # Opcode initiation intervals for single precision floating points <ADD,MAX,MUL,MAD,DIV>Default 1,1,1,1,5
-ptx_opcode_initiation_dp      64,64,64,64,130 # Opcode initiation intervals for double precision floating points <ADD,MAX,MUL,MAD,DIV>Default 8,8,8,8,130
-ptx_opcode_initiation_sfu                    8 # Opcode initiation intervals for sfu instructionsDefault 8
-ptx_opcode_initiation_tensor                   64 # Opcode initiation intervals for tensor instructionsDefault 64
-cdp_latency         7200,8000,100,12000,1600 # CDP API latency <cudaStreamCreateWithFlags, cudaGetParameterBufferV2_init_perWarp, cudaGetParameterBufferV2_perKernel, cudaLaunchDeviceV2_init_perWarp, cudaLaunchDevicV2_perKernel>Default 7200,8000,100,12000,1600
-network_mode                           2 # Interconnection network mode
-inter_config_file                   mesh # Interconnection network config file
-icnt_in_buffer_limit                  512 # in_buffer_limit
-icnt_out_buffer_limit                  512 # out_buffer_limit
-icnt_subnets                           2 # subnets
-icnt_arbiter_algo                      1 # arbiter_algo
-icnt_verbose                           0 # inct_verbose
-icnt_grant_cycles                      1 # grant_cycles
-gpgpu_ptx_use_cuobjdump                    1 # Use cuobjdump to extract ptx and sass from binaries
-gpgpu_experimental_lib_support                    0 # Try to extract code from cuda libraries [Broken because of unknown cudaGetExportTable]
-checkpoint_option                      0 #  checkpointing flag (0 = no checkpoint)
-checkpoint_kernel                      1 #  checkpointing during execution of which kernel (1- 1st kernel)
-checkpoint_CTA                         0 #  checkpointing after # of CTA (< less than total CTA)
-resume_option                          0 #  resume flag (0 = no resume)
-resume_kernel                          0 #  Resume from which kernel (1= 1st kernel)
-resume_CTA                             0 #  resume from which CTA 
-checkpoint_CTA_t                       0 #  resume from which CTA 
-checkpoint_insn_Y                      0 #  resume from which CTA 
-gpgpu_ptx_convert_to_ptxplus                    0 # Convert SASS (native ISA) to ptxplus and run ptxplus
-gpgpu_ptx_force_max_capability                   75 # Force maximum compute capability
-gpgpu_ptx_inst_debug_to_file                    0 # Dump executed instructions' debug information to file
-gpgpu_ptx_inst_debug_file       inst_debug.txt # Executed instructions' debug output file
-gpgpu_ptx_inst_debug_thread_uid                    1 # Thread UID for executed instructions' debug output
-gpgpu_simd_model                       1 # 1 = post-dominator
-gpgpu_shader_core_pipeline              1024:32 # shader core pipeline config, i.e., {<nthread>:<warpsize>}
-gpgpu_tex_cache:l1  N:4:128:256,L:R:m:N:L,T:512:8,128:2 # per-shader L1 texture cache  (READ-ONLY) config  {<nsets>:<bsize>:<assoc>,<rep>:<wr>:<alloc>:<wr_alloc>,<mshr>:<N>:<merge>,<mq>:<rf>}
-gpgpu_const_cache:l1 N:128:64:8,L:R:f:N:L,S:2:64,4 # per-shader L1 constant memory cache  (READ-ONLY) config  {<nsets>:<bsize>:<assoc>,<rep>:<wr>:<alloc>:<wr_alloc>,<mshr>:<N>:<merge>,<mq>} 
-gpgpu_cache:il1     N:64:128:16,L:R:f:N:L,S:2:48,4 # shader L1 instruction cache config  {<nsets>:<bsize>:<assoc>,<rep>:<wr>:<alloc>:<wr_alloc>,<mshr>:<N>:<merge>,<mq>} 
-gpgpu_cache:dl1     S:4:128:64,L:T:m:L:L,A:256:32,16:0,32 # per-shader L1 data cache config  {<nsets>:<bsize>:<assoc>,<rep>:<wr>:<alloc>:<wr_alloc>,<mshr>:<N>:<merge>,<mq> | none}
-gpgpu_l1_cache_write_ratio                   25 # L1D write ratio
-gpgpu_l1_banks                         4 # The number of L1 cache banks
-gpgpu_l1_banks_byte_interleaving                   32 # l1 banks byte interleaving granularity
-gpgpu_l1_banks_hashing_function                    0 # l1 banks hashing function
-gpgpu_l1_latency                      32 # L1 Hit Latency
-gpgpu_smem_latency                    30 # smem Latency
-gpgpu_cache:dl1PrefL1                 none # per-shader L1 data cache config  {<nsets>:<bsize>:<assoc>,<rep>:<wr>:<alloc>:<wr_alloc>,<mshr>:<N>:<merge>,<mq> | none}
-gpgpu_cache:dl1PrefShared                 none # per-shader L1 data cache config  {<nsets>:<bsize>:<assoc>,<rep>:<wr>:<alloc>:<wr_alloc>,<mshr>:<N>:<merge>,<mq> | none}
-gpgpu_gmem_skip_L1D                    0 # global memory access skip L1D cache (implements -Xptxas -dlcm=cg, default=no skip)
-gpgpu_perfect_mem                      0 # enable perfect memory mode (no cache miss)
-n_regfile_gating_group                    4 # group of lanes that should be read/written together)
-gpgpu_clock_gated_reg_file                    0 # enable clock gated reg file for power calculations
-gpgpu_clock_gated_lanes                    0 # enable clock gated lanes for power calculations
-gpgpu_shader_registers                65536 # Number of registers per shader core. Limits number of concurrent CTAs. (default 8192)
-gpgpu_registers_per_block                65536 # Maximum number of registers per CTA. (default 8192)
-gpgpu_ignore_resources_limitation                    0 # gpgpu_ignore_resources_limitation (default 0)
-gpgpu_shader_cta                      16 # Maximum number of concurrent CTAs in shader (default 32)
-gpgpu_num_cta_barriers                   16 # Maximum number of named barriers per CTA (default 16)
-gpgpu_n_clusters                      30 # number of processing clusters
-gpgpu_n_cores_per_cluster                    1 # number of simd cores per cluster
-gpgpu_n_cluster_ejection_buffer_size                   32 # number of packets in ejection buffer
-gpgpu_n_ldst_response_buffer_size                    2 # number of response packets in ld/st unit ejection buffer
-gpgpu_shmem_per_block                49152 # Size of shared memory per thread block or CTA (default 48kB)
-gpgpu_shmem_size                   65536 # Size of shared memory per shader core (default 16kB)
-gpgpu_shmem_option                 32,64 # Option list of shared memory sizes
-gpgpu_unified_l1d_size                   96 # Size of unified data cache(L1D + shared memory) in KB
-gpgpu_adaptive_cache_config                    1 # adaptive_cache_config
-gpgpu_shmem_sizeDefault                65536 # Size of shared memory per shader core (default 16kB)
-gpgpu_shmem_size_PrefL1                16384 # Size of shared memory per shader core (default 16kB)
-gpgpu_shmem_size_PrefShared                16384 # Size of shared memory per shader core (default 16kB)
-gpgpu_shmem_num_banks                   32 # Number of banks in the shared memory in each shader core (default 16)
-gpgpu_shmem_limited_broadcast                    0 # Limit shared memory to do one broadcast per cycle (default on)
-gpgpu_shmem_warp_parts                    1 # Number of portions a warp is divided into for shared memory bank conflict check 
-gpgpu_mem_unit_ports                    1 # The number of memory transactions allowed per core cycle
-gpgpu_shmem_warp_parts                    1 # Number of portions a warp is divided into for shared memory bank conflict check 
-gpgpu_warpdistro_shader                   -1 # Specify which shader core to collect the warp size distribution from
-gpgpu_warp_issue_shader                    0 # Specify which shader core to collect the warp issue distribution from
-gpgpu_local_mem_map                    1 # Mapping from local memory space address to simulated GPU physical address space (default = enabled)
-gpgpu_num_reg_banks                    8 # Number of register banks (default = 8)
-gpgpu_reg_bank_use_warp_id                    0 # Use warp ID in mapping registers to banks (default = off)
-gpgpu_sub_core_model                    1 # Sub Core Volta/Pascal model (default = off)
-gpgpu_enable_specialized_operand_collector                    0 # enable_specialized_operand_collector
-gpgpu_operand_collector_num_units_sp                    4 # number of collector units (default = 4)
-gpgpu_operand_collector_num_units_dp                    0 # number of collector units (default = 0)
-gpgpu_operand_collector_num_units_sfu                    4 # number of collector units (default = 4)
-gpgpu_operand_collector_num_units_int                    0 # number of collector units (default = 0)
-gpgpu_operand_collector_num_units_tensor_core                    4 # number of collector units (default = 4)
-gpgpu_operand_collector_num_units_mem                    2 # number of collector units (default = 2)
-gpgpu_operand_collector_num_units_gen                    8 # number of collector units (default = 0)
-gpgpu_operand_collector_num_in_ports_sp                    1 # number of collector unit in ports (default = 1)
-gpgpu_operand_collector_num_in_ports_dp                    0 # number of collector unit in ports (default = 0)
-gpgpu_operand_collector_num_in_ports_sfu                    1 # number of collector unit in ports (default = 1)
-gpgpu_operand_collector_num_in_ports_int                    0 # number of collector unit in ports (default = 0)
-gpgpu_operand_collector_num_in_ports_tensor_core                    1 # number of collector unit in ports (default = 1)
-gpgpu_operand_collector_num_in_ports_mem                    1 # number of collector unit in ports (default = 1)
-gpgpu_operand_collector_num_in_ports_gen                    8 # number of collector unit in ports (default = 0)
-gpgpu_operand_collector_num_out_ports_sp                    1 # number of collector unit in ports (default = 1)
-gpgpu_operand_collector_num_out_ports_dp                    0 # number of collector unit in ports (default = 0)
-gpgpu_operand_collector_num_out_ports_sfu                    1 # number of collector unit in ports (default = 1)
-gpgpu_operand_collector_num_out_ports_int                    0 # number of collector unit in ports (default = 0)
-gpgpu_operand_collector_num_out_ports_tensor_core                    1 # number of collector unit in ports (default = 1)
-gpgpu_operand_collector_num_out_ports_mem                    1 # number of collector unit in ports (default = 1)
-gpgpu_operand_collector_num_out_ports_gen                    8 # number of collector unit in ports (default = 0)
-gpgpu_coalesce_arch                   75 # Coalescing arch (GT200 = 13, Fermi = 20)
-gpgpu_num_sched_per_core                    4 # Number of warp schedulers per core
-gpgpu_max_insn_issue_per_warp                    1 # Max number of instructions that can be issued per warp in one cycle by scheduler (either 1 or 2)
-gpgpu_dual_issue_diff_exec_units                    1 # should dual issue use two different execution unit resources (Default = 1)
-gpgpu_simt_core_sim_order                    1 # Select the simulation order of cores in a cluster (0=Fix, 1=Round-Robin)
-gpgpu_pipeline_widths 4,4,4,4,4,4,4,4,4,4,8,4,4 # Pipeline widths ID_OC_SP,ID_OC_DP,ID_OC_INT,ID_OC_SFU,ID_OC_MEM,OC_EX_SP,OC_EX_DP,OC_EX_INT,OC_EX_SFU,OC_EX_MEM,EX_WB,ID_OC_TENSOR_CORE,OC_EX_TENSOR_CORE
-gpgpu_tensor_core_avail                    1 # Tensor Core Available (default=0)
-gpgpu_num_sp_units                     4 # Number of SP units (default=1)
-gpgpu_num_dp_units                     4 # Number of DP units (default=0)
-gpgpu_num_int_units                    4 # Number of INT units (default=0)
-gpgpu_num_sfu_units                    4 # Number of SF units (default=1)
-gpgpu_num_tensor_core_units                    4 # Number of tensor_core units (default=1)
-gpgpu_num_mem_units                    1 # Number if ldst units (default=1) WARNING: not hooked up to anything
-gpgpu_scheduler                      lrr # Scheduler configuration: < lrr | gto | two_level_active > If two_level_active:<num_active_warps>:<inner_prioritization>:<outer_prioritization>For complete list of prioritization values see shader.h enum scheduler_prioritization_typeDefault: gto
-gpgpu_concurrent_kernel_sm                    0 # Support concurrent kernels on a SM (default = disabled)
-gpgpu_perfect_inst_const_cache                    1 # perfect inst and const cache mode, so all inst and const hits in the cache(default = disabled)
-gpgpu_inst_fetch_throughput                    4 # the number of fetched intruction per warp each cycle
-gpgpu_reg_file_port_throughput                    2 # the number ports of the register file
-specialized_unit_1         0,4,4,4,4,BRA # specialized unit config {<enabled>,<num_units>:<latency>:<initiation>,<ID_OC_SPEC>:<OC_EX_SPEC>,<NAME>}
-specialized_unit_2         0,4,4,4,4,BRA # specialized unit config {<enabled>,<num_units>:<latency>:<initiation>,<ID_OC_SPEC>:<OC_EX_SPEC>,<NAME>}
-specialized_unit_3         0,4,4,4,4,BRA # specialized unit config {<enabled>,<num_units>:<latency>:<initiation>,<ID_OC_SPEC>:<OC_EX_SPEC>,<NAME>}
-specialized_unit_4         0,4,4,4,4,BRA # specialized unit config {<enabled>,<num_units>:<latency>:<initiation>,<ID_OC_SPEC>:<OC_EX_SPEC>,<NAME>}
-specialized_unit_5         0,4,4,4,4,BRA # specialized unit config {<enabled>,<num_units>:<latency>:<initiation>,<ID_OC_SPEC>:<OC_EX_SPEC>,<NAME>}
-specialized_unit_6         0,4,4,4,4,BRA # specialized unit config {<enabled>,<num_units>:<latency>:<initiation>,<ID_OC_SPEC>:<OC_EX_SPEC>,<NAME>}
-specialized_unit_7         0,4,4,4,4,BRA # specialized unit config {<enabled>,<num_units>:<latency>:<initiation>,<ID_OC_SPEC>:<OC_EX_SPEC>,<NAME>}
-specialized_unit_8         0,4,4,4,4,BRA # specialized unit config {<enabled>,<num_units>:<latency>:<initiation>,<ID_OC_SPEC>:<OC_EX_SPEC>,<NAME>}
-gpgpu_perf_sim_memcpy                    1 # Fill the L2 cache on memcpy
-gpgpu_simple_dram_model                    0 # simple_dram_model with fixed latency and BW
-gpgpu_dram_scheduler                    1 # 0 = fifo, 1 = FR-FCFS (defaul)
-gpgpu_dram_partition_queues          64:64:64:64 # i2$:$2d:d2$:$2i
-l2_ideal                               0 # Use a ideal L2 cache that always hit
-gpgpu_cache:dl2     S:64:128:16,L:B:m:L:P,A:192:4,32:0,32 # unified banked L2 data cache config  {<nsets>:<bsize>:<assoc>,<rep>:<wr>:<alloc>:<wr_alloc>,<mshr>:<N>:<merge>,<mq>}
-gpgpu_cache:dl2_texture_only                    0 # L2 cache used for texture only
-gpgpu_n_mem                           12 # number of memory modules (e.g. memory controllers) in gpu
-gpgpu_n_sub_partition_per_mchannel                    2 # number of memory subpartition in each memory module
-gpgpu_n_mem_per_ctrlr                    1 # number of memory chips per memory controller
-gpgpu_memlatency_stat                   14 # track and display latency statistics 0x2 enables MC, 0x4 enables queue logs
-gpgpu_frfcfs_dram_sched_queue_size                   64 # 0 = unlimited (default); # entries per chip
-gpgpu_dram_return_queue_size                  192 # 0 = unlimited (default); # entries per chip
-gpgpu_dram_buswidth                    2 # default = 4 bytes (8 bytes per cycle at DDR)
-gpgpu_dram_burst_length                   16 # Burst length of each DRAM request (default = 4 data bus cycle)
-dram_data_command_freq_ratio                    4 # Frequency ratio between DRAM data bus and command bus (default = 2 times, i.e. DDR)
-gpgpu_dram_timing_opt nbk=16:CCD=4:RRD=12:RCD=24:RAS=55:RP=24:RC=78:CL=24:WL=8:CDLR=10:WR=24:nbkgrp=4:CCDL=6:RTPL=4 # DRAM timing parameters = {nbk:tCCD:tRRD:tRCD:tRAS:tRP:tRC:CL:WL:tCDLR:tWR:nbkgrp:tCCDL:tRTPL}
-gpgpu_l2_rop_latency                  194 # ROP queue latency (default 85)
-dram_latency                          96 # DRAM latency (default 30)
-dram_dual_bus_interface                    0 # dual_bus_interface (default = 0) 
-dram_bnk_indexing_policy                    0 # dram_bnk_indexing_policy (0 = normal indexing, 1 = Xoring with the higher bits) (Default = 0)
-dram_bnkgrp_indexing_policy                    1 # dram_bnkgrp_indexing_policy (0 = take higher bits, 1 = take lower bits) (Default = 0)
-dram_seperate_write_queue_enable                    0 # Seperate_Write_Queue_Enable
-dram_write_queue_size             32:28:16 # Write_Queue_Size
-dram_elimnate_rw_turnaround                    0 # elimnate_rw_turnaround i.e set tWTR and tRTW = 0
-icnt_flit_size                        40 # icnt_flit_size
-icnt_flit_size                        40 # icnt_flit_size
-mem_profiler                           0 # memory access runtime profiling (0 = not enabled)
-gpgpu_mem_addr_mapping dramid@8;00000000.00000000.00000000.00000000.0000RRRR.RRRRRRRR.RBBBCCCC.BCCSSSSS # mapping memory address to dram model {dramid@<start bit>;<memory address map>}
-gpgpu_mem_addr_test                    0 # run sweep test to check address mapping for aliased address
-gpgpu_mem_address_mask                    1 # 0 = old addressing mask, 1 = new addressing mask, 2 = new add. mask + flipped bank sel and chip sel bits
-gpgpu_memory_partition_indexing                    0 # 0 = no indexing, 1 = bitwise xoring, 2 = IPoly, 3 = custom indexing
-accelwattch_xml_file accelwattch_sass_sim.xml # AccelWattch XML file
-power_simulation_enabled                    1 # Turn on power simulator (1=On, 0=Off)
-power_per_cycle_dump                    1 # Dump detailed power output each cycle
-hw_perf_file_name            hw_perf.csv # Hardware Performance Statistics file
-hw_perf_bench_name    hw_perf_bench_name # Kernel Name in Hardware Performance Statistics file
-power_simulation_mode                    0 # Switch performance counter input for power simulation (0=Sim, 1=HW, 2=HW-Sim Hybrid)
-dvfs_enabled                           1 # Turn on DVFS for power model
-aggregate_power_stats                    0 # Accumulate power across all kernels
-accelwattch_hybrid_perfsim_L1_RH                    0 # Get L1 Read Hits for Accelwattch-Hybrid from Accel-Sim
-accelwattch_hybrid_perfsim_L1_RM                    0 # Get L1 Read Misses for Accelwattch-Hybrid from Accel-Sim
-accelwattch_hybrid_perfsim_L1_WH                    0 # Get L1 Write Hits for Accelwattch-Hybrid from Accel-Sim
-accelwattch_hybrid_perfsim_L1_WM                    0 # Get L1 Write Misses for Accelwattch-Hybrid from Accel-Sim
-accelwattch_hybrid_perfsim_L2_RH                    0 # Get L2 Read Hits for Accelwattch-Hybrid from Accel-Sim
-accelwattch_hybrid_perfsim_L2_RM                    0 # Get L2 Read Misses for Accelwattch-Hybrid from Accel-Sim
-accelwattch_hybrid_perfsim_L2_WH                    0 # Get L2 Write Hits for Accelwattch-Hybrid from Accel-Sim
-accelwattch_hybrid_perfsim_L2_WM                    0 # Get L2 Write Misses for Accelwattch-Hybrid from Accel-Sim
-accelwattch_hybrid_perfsim_CC_ACC                    0 # Get Constant Cache Acesses for Accelwattch-Hybrid from Accel-Sim
-accelwattch_hybrid_perfsim_SHARED_ACC                    0 # Get Shared Memory Acesses for Accelwattch-Hybrid from Accel-Sim
-accelwattch_hybrid_perfsim_DRAM_RD                    0 # Get DRAM Reads for Accelwattch-Hybrid from Accel-Sim
-accelwattch_hybrid_perfsim_DRAM_WR                    0 # Get DRAM Writes for Accelwattch-Hybrid from Accel-Sim
-accelwattch_hybrid_perfsim_NOC                    0 # Get Interconnect Acesses for Accelwattch-Hybrid from Accel-Sim
-accelwattch_hybrid_perfsim_PIPE_DUTY                    0 # Get Pipeline Duty Cycle Acesses for Accelwattch-Hybrid from Accel-Sim
-accelwattch_hybrid_perfsim_NUM_SM_IDLE                    0 # Get Number of Idle SMs for Accelwattch-Hybrid from Accel-Sim
-accelwattch_hybrid_perfsim_CYCLES                    0 # Get Executed Cycles for Accelwattch-Hybrid from Accel-Sim
-accelwattch_hybrid_perfsim_VOLTAGE                    0 # Get Chip Voltage for Accelwattch-Hybrid from Accel-Sim
-power_trace_enabled                    0 # produce a file for the power trace (1=On, 0=Off)
-power_trace_zlevel                     0 # Compression level of the power trace output log (0=no comp, 9=highest)
-steady_power_levels_enabled                    0 # produce a file for the steady power levels (1=On, 0=Off)
-steady_state_definition                  8:4 # allowed deviation:number of samples
-gpgpu_max_cycle                        0 # terminates gpu simulation early (0 = no limit)
-gpgpu_max_insn                         0 # terminates gpu simulation early (0 = no limit)
-gpgpu_max_cta                          0 # terminates gpu simulation early (0 = no limit)
-gpgpu_max_completed_cta                    0 # terminates gpu simulation early (0 = no limit)
-gpgpu_runtime_stat                  1000 # display runtime statistics such as dram utilization {<freq>:<flag>}
-liveness_message_freq                    1 # Minimum number of seconds between simulation liveness messages (0 = always print)
-gpgpu_compute_capability_major                    7 # Major compute capability version number
-gpgpu_compute_capability_minor                    5 # Minor compute capability version number
-gpgpu_flush_l1_cache                    1 # Flush L1 cache at the end of each kernel call
-gpgpu_flush_l2_cache                    0 # Flush L2 cache at the end of each kernel call
-gpgpu_deadlock_detect                    1 # Stop the simulation at deadlock (1=on (default), 0=off)
-gpgpu_ptx_instruction_classification                    0 # if enabled will classify ptx instruction types per kernel (Max 255 kernels now)
-gpgpu_ptx_sim_mode                     0 # Select between Performance (default) or Functional simulation (1)
-gpgpu_clock_domains 1365:1365:1365:3500.5 # Clock Domain Frequencies in MhZ {<Core Clock>:<ICNT Clock>:<L2 Clock>:<DRAM Clock>}
-gpgpu_max_concurrent_kernel                  128 # maximum kernels that can run concurrently on GPU, set this value according to max resident grids for your compute capability
-gpgpu_cflog_interval                    0 # Interval between each snapshot in control flow logger
-visualizer_enabled                     0 # Turn on visualizer output (1=On, 0=Off)
-visualizer_outputfile                 NULL # Specifies the output log file for visualizer
-visualizer_zlevel                      6 # Compression level of the visualizer output log (0=no comp, 9=highest)
-gpgpu_stack_size_limit                 1024 # GPU thread stack size
-gpgpu_heap_size_limit              8388608 # GPU malloc heap size 
-gpgpu_runtime_sync_depth_limit                    2 # GPU device runtime synchronize depth
-gpgpu_runtime_pending_launch_count_limit                 2048 # GPU device runtime pending launch count
-trace_enabled                          0 # Turn on traces
-trace_components                    none # comma seperated list of traces to enable. Complete list found in trace_streams.tup. Default none
-trace_sampling_core                    0 # The core which is printed using CORE_DPRINTF. Default 0
-trace_sampling_memory_partition                   -1 # The memory partition which is printed using MEMPART_DPRINTF. Default -1 (i.e. all)
-enable_ptx_file_line_stats                    1 # Turn on PTX source line statistic profiling. (1 = On)
-ptx_line_stats_filename gpgpu_inst_stats.txt # Output file for PTX source line statistics.
-gpgpu_kernel_launch_latency                 5000 # Kernel launch latency in cycles. Default: 0
-gpgpu_cdp_enabled                      0 # Turn on CDP
-gpgpu_TB_launch_latency                    0 # thread block launch latency in cycles. Default: 0
-mem_runtime_stat                     100 # memory access runtime profiling sampling81165b7b94fe60e5edd3661e7ddfbca7  /home/pars/Documents/sim_4/cc_base
Extracting PTX file and ptxas options    1: cc_base.1.sm_75.ptx -arch=sm_75
 freq
-L1D_metrics                            0 # memory access runtime profiling for L1 data cache
-IPC_per_prof_interval                    0 # IPC per profiling interval
-instruction_monitor                    0 # Instruction monitor
-noncoal_metrics                        0 # memory access runtime profiling for shared memory
-L2_metrics                             0 # memory access runtime profiling for L2 cache
-DRAM_metrics                           0 # memory access runtime profiling for DRAM
-Shmem_metrics                          0 # memory access runtime profiling for noncoalesced accesses
-store_enable                           0 # Enable stores for memory profiling
-accumulate_stats                       0 # Accumulate stats for the memory profiling
-dump_enable                            0 # Process dump enable flag - (def = 0)
-flush_l1d                              0 # Enable flushings for L1D caches - (default = 0)
-flush_l2                               0 # Enable flushings for L2 caches - (default = 0)
-flush_dram                             0 # Enable flushings for DRAM - (default = 0)
-flush_noncoalesceds                    0 # Enable flushings for non coalesced accesses - (default = 0)
-flush_shmems                           0 # Enable flushings for shared memory accesses - (default = 0)
-error_percentage          21474836480001 # Error percentage for the flushes - (default = 1)
-dump_sampling_cycle       21474836485000 # Dump sampling frequency - (default = 5000)
-flush_acc_type                         2 # Flush access types
-monitor_sampling_cycle                 5000 # Monitoring sampling cycle - (default = 5000)
DRAM Timing Options:
nbk                                    16 # number of banks
CCD                                     4 # column to column delay
RRD                                    12 # minimal delay between activation of rows in different banks
RCD                                    24 # row to column delay
RAS                                    55 # time needed to activate row
RP                                     24 # time needed to precharge (deactivate) row
RC                                     78 # row cycle time
CDLR                                   10 # switching from write to read (changes tWTR)
WR                                     24 # last data-in to row precharge
CL                                     24 # CAS latency
WL                                      8 # Write latency
nbkgrp                                  4 # number of bank groups
CCDL                                    6 # column to column delay between accesses to different bank groups
RTPL                                    4 # read to precharge delay between accesses to different bank groups
Total number of memory sub partition = 24
addr_dec_mask[CHIP]  = 0000000000000000 	high:64 low:0
addr_dec_mask[BK]    = 0000000000007080 	high:15 low:7
addr_dec_mask[ROW]   = 000000000fff8000 	high:28 low:15
addr_dec_mask[COL]   = 0000000000000f7f 	high:12 low:0
addr_dec_mask[BURST] = 000000000000001f 	high:5 low:0
sub_partition_id_mask = 0000000000000080
GPGPU-Sim uArch: clock freqs: 1365000000.000000:1365000000.000000:1365000000.000000:3500500000.000000
GPGPU-Sim uArch: clock periods: 0.00000000073260073260:0.00000000073260073260:0.00000000073260073260:0.00000000028567347522
*** Initializing Memory Statistics ***
GPGPU-Sim uArch: performance model initialization complete.
self exe links to: /home/pars/Documents/sim_4/cc_base
self exe links to: /home/pars/Documents/sim_4/cc_base
11.0
GPGPU-Sim PTX: __cudaRegisterFatBinary, fat_cubin_handle = 1, filename=default
self exe links to: /home/pars/Documents/sim_4/cc_base
Running md5sum using "md5sum /home/pars/Documents/sim_4/cc_base "
self exe links to: /home/pars/Documents/sim_4/cc_base
Extracting specific PTX file named cc_base.1.sm_75.ptx 
GPGPU-Sim PTX: __cudaRegisterFunction _Z8shortcutiPi : hostFun 0x0x555cea234dbb, fat_cubin_handle = 1
GPGPU-Sim PTX: Parsing cc_base.1.sm_75.ptx
GPGPU-Sim PTX: Warning -- ignoring pragma 'nounroll'
GPGPU-Sim PTX: instruction assembly for function '_Z4hookiPKmPKiPiPb'...   done.
GPGPU-Sim PTX: instruction assembly for function '_Z8shortcutiPi'...   done.
GPGPU-Sim PTX: finished parsing EMBEDDED .ptx file cc_base.1.sm_75.ptx
GPGPU-Sim PTX: loading globals with explicit initializers... 
GPGPU-Sim PTX: finished loading globals (0 bytes total).
GPGPU-Sim PTX: loading constants with explicit initializers...  done.
GPGPU-Sim PTX: Loading PTXInfo from cc_base.1.sm_75.ptx
GPGPU-Sim PTX: Kernel '_Z8shortcutiPi' : regs=12, lmem=0, smem=0, cmem=368
GPGPU-Sim PTX: Kernel '_Z4hookiPKmPKiPiPb' : regs=18, lmem=0, smem=0, cmem=392
GPGPU-Sim PTX: __cudaRegisterFunction _Z4hookiPKmPKiPiPb : hostFun 0x0x555cea234c40, fat_cubin_handle = 1
Connected Component by Xuhao Chen
Reading (.mtx) input file ../CudaBenchmarks/gardenia/datasets/new/socfb-Berkeley13.mtx
Removing redundent edges... 0 redundent edges are removed
|V| 22900 |E| 1704838
This graph is symmetrized
Launching CUDA CC solver (90 CTAs, 256 threads/CTA) ...
GPGPU-Sim PTX: Setting up arguments for 4 bytes starting at 0x7ffc623198dc..
GPGPU-Sim PTX: Setting up arguments for 8 bytes starting at 0x7ffc623198d0..
GPGPU-Sim PTX: Setting up arguments for 8 bytes starting at 0x7ffc623198c8..
GPGPU-Sim PTX: Setting up arguments for 8 bytes starting at 0x7ffc623198c0..
GPGPU-Sim PTX: Setting up arguments for 8 bytes starting at 0x7ffc623198b8..

GPGPU-Sim PTX: cudaLaunch for 0x0x555cea234c40 (mode=performance simulation) on stream 0
GPGPU-Sim PTX: finding reconvergence points for '_Z4hookiPKmPKiPiPb'...
GPGPU-Sim PTX: Finding dominators for '_Z4hookiPKmPKiPiPb'...
GPGPU-Sim PTX: Finding immediate dominators for '_Z4hookiPKmPKiPiPb'...
GPGPU-Sim PTX: Finding postdominators for '_Z4hookiPKmPKiPiPb'...
GPGPU-Sim PTX: Finding immediate postdominators for '_Z4hookiPKmPKiPiPb'...
GPGPU-Sim PTX: pre-decoding instructions for '_Z4hookiPKmPKiPiPb'...
GPGPU-Sim PTX: reconvergence points for _Z4hookiPKmPKiPiPb...
GPGPU-Sim PTX:  1 (potential) branch divergence @  PC=0x068 (cc_base.1.sm_75.ptx:42) @%p1 bra $L__BB0_23;

GPGPU-Sim PTX:    immediate post dominator      @  PC=0x408 (cc_base.1.sm_75.ptx:201) ret;

GPGPU-Sim PTX:  2 (potential) branch divergence @  PC=0x0b8 (cc_base.1.sm_75.ptx:53) @%p2 bra $L__BB0_23;

GPGPU-Sim PTX:    immediate post dominator      @  PC=0x408 (cc_base.1.sm_75.ptx:201) ret;

GPGPU-Sim PTX:  3 (potential) branch divergence @  PC=0x0e0 (cc_base.1.sm_75.ptx:59) @%p3 bra $L__BB0_8;

GPGPU-Sim PTX:    immediate post dominator      @  PC=0x1b0 (cc_base.1.sm_75.ptx:97) not.b32 %r33, %r3;

GPGPU-Sim PTX:  4 (potential) branch divergence @  PC=0x130 (cc_base.1.sm_75.ptx:75) @%p4 bra $L__BB0_7;

GPGPU-Sim PTX:    immediate post dominator      @  PC=0x188 (cc_base.1.sm_75.ptx:90) add.s32 %r57, %r57, 1;

GPGPU-Sim PTX:  5 (potential) branch divergence @  PC=0x170 (cc_base.1.sm_75.ptx:84) @%p5 bra $L__BB0_7;

GPGPU-Sim PTX:    immediate post dominator      @  PC=0x188 (cc_base.1.sm_75.ptx:90) add.s32 %r57, %r57, 1;

GPGPU-Sim PTX:  6 (potential) branch divergence @  PC=0x1a8 (cc_base.1.sm_75.ptx:94) @%p6 bra $L__BB0_4;

GPGPU-Sim PTX:    immediate post dominator      @  PC=0x1b0 (cc_base.1.sm_75.ptx:97) not.b32 %r33, %r3;

GPGPU-Sim PTX:  7 (potential) branch divergence @  PC=0x1c8 (cc_base.1.sm_75.ptx:100) @%p7 bra $L__BB0_23;

GPGPU-Sim PTX:    immediate post dominator      @  PC=0x408 (cc_base.1.sm_75.ptx:201) ret;

GPGPU-Sim PTX:  8 (potential) branch divergence @  PC=0x210 (cc_base.1.sm_75.ptx:114) @%p8 bra $L__BB0_13;

GPGPU-Sim PTX:    immediate post dominator      @  PC=0x268 (cc_base.1.sm_75.ptx:129) ld.global.u32 %r41, [%rd42+4];

GPGPU-Sim PTX:  9 (potential) branch divergence @  PC=0x250 (cc_base.1.sm_75.ptx:123) @%p9 bra $L__BB0_13;

GPGPU-Sim PTX:    immediate post dominator      @  PC=0x268 (cc_base.1.sm_75.ptx:129) ld.global.u32 %r41, [%rd42+4];

GPGPU-Sim PTX: 10 (potential) branch divergence @  PC=0x290 (cc_base.1.sm_75.ptx:136) @%p10 bra $L__BB0_16;

GPGPU-Sim PTX:    immediate post dominator      @  PC=0x2e8 (cc_base.1.sm_75.ptx:151) ld.global.u32 %r46, [%rd42+8];

GPGPU-Sim PTX: 11 (potential) branch divergence @  PC=0x2d0 (cc_base.1.sm_75.ptx:145) @%p11 bra $L__BB0_16;

GPGPU-Sim PTX:    immediate post dominator      @  PC=0x2e8 (cc_base.1.sm_75.ptx:151) ld.global.u32 %r46, [%rd42+8];

GPGPU-Sim PTX: 12 (potential) branch divergence @  PC=0x310 (cc_base.1.sm_75.ptx:158) @%p12 bra $L__BB0_19;

GPGPU-Sim PTX:    immediate post dominator      @  PC=0x368 (cc_base.1.sm_75.ptx:173) ld.global.u32 %r51, [%rd42+12];

GPGPU-Sim PTX: 13 (potential) branch divergence @  PC=0x350 (cc_base.1.sm_75.ptx:167) @%p13 bra $L__BB0_19;

GPGPU-Sim PTX:    immediate post dominator      @  PC=0x368 (cc_base.1.sm_75.ptx:173) ld.global.u32 %r51, [%rd42+12];

GPGPU-Sim PTX: 14 (potential) branch divergence @  PC=0x390 (cc_base.1.sm_75.ptx:180) @%p14 bra $L__BB0_22;

GPGPU-Sim PTX:    immediate post dominator      @  PC=0x3e8 (cc_base.1.sm_75.ptx:195) add.s32 %r57, %r57, 4;

GPGPU-Sim PTX: 15 (potential) branch divergence @  PC=0x3d0 (cc_base.1.sm_75.ptx:189) @%p15 bra $L__BB0_22;

GPGPU-Sim PTX:    immediate post dominator      @  PC=0x3e8 (cc_base.1.sm_75.ptx:195) add.s32 %r57, %r57, 4;

GPGPU-Sim PTX: 16 (potential) branch divergence @  PC=0x400 (cc_base.1.sm_75.ptx:198) @%p16 bra $L__BB0_10;

GPGPU-Sim PTX:    immediate post dominator      @  PC=0x408 (cc_base.1.sm_75.ptx:201) ret;

GPGPU-Sim PTX: ... end of reconvergence points for _Z4hookiPKmPKiPiPb
GPGPU-Sim PTX: ... done pre-decoding instructions for '_Z4hookiPKmPKiPiPb'.
GPGPU-Sim PTX: pushing kernel '_Z4hookiPKmPKiPiPb' to stream 0, gridDim= (90,1,1) blockDim = (256,1,1) 
GPGPU-Sim uArch: Shader 0 bind to kernel 1 '_Z4hookiPKmPKiPiPb'
GPGPU-Sim uArch: CTA/core = 4, limited by: threads
GPGPU-Sim: Reconfigure L1 cache to 64KB
GPGPU-Sim uArch: Shader 1 bind to kernel 1 '_Z4hookiPKmPKiPiPb'
GPGPU-Sim uArch: Shader 2 bind to kernel 1 '_Z4hookiPKmPKiPiPb'
GPGPU-Sim uArch: Shader 3 bind to kernel 1 '_Z4hookiPKmPKiPiPb'
GPGPU-Sim uArch: Shader 4 bind to kernel 1 '_Z4hookiPKmPKiPiPb'
GPGPU-Sim uArch: Shader 5 bind to kernel 1 '_Z4hookiPKmPKiPiPb'
GPGPU-Sim uArch: Shader 6 bind to kernel 1 '_Z4hookiPKmPKiPiPb'
GPGPU-Sim uArch: Shader 7 bind to kernel 1 '_Z4hookiPKmPKiPiPb'
GPGPU-Sim uArch: Shader 8 bind to kernel 1 '_Z4hookiPKmPKiPiPb'
GPGPU-Sim uArch: Shader 9 bind to kernel 1 '_Z4hookiPKmPKiPiPb'
GPGPU-Sim uArch: Shader 10 bind to kernel 1 '_Z4hookiPKmPKiPiPb'
GPGPU-Sim uArch: Shader 11 bind to kernel 1 '_Z4hookiPKmPKiPiPb'
GPGPU-Sim uArch: Shader 12 bind to kernel 1 '_Z4hookiPKmPKiPiPb'
GPGPU-Sim uArch: Shader 13 bind to kernel 1 '_Z4hookiPKmPKiPiPb'
GPGPU-Sim uArch: Shader 14 bind to kernel 1 '_Z4hookiPKmPKiPiPb'
GPGPU-Sim uArch: Shader 15 bind to kernel 1 '_Z4hookiPKmPKiPiPb'
GPGPU-Sim uArch: Shader 16 bind to kernel 1 '_Z4hookiPKmPKiPiPb'
GPGPU-Sim uArch: Shader 17 bind to kernel 1 '_Z4hookiPKmPKiPiPb'
GPGPU-Sim uArch: Shader 18 bind to kernel 1 '_Z4hookiPKmPKiPiPb'
GPGPU-Sim uArch: Shader 19 bind to kernel 1 '_Z4hookiPKmPKiPiPb'
GPGPU-Sim uArch: Shader 20 bind to kernel 1 '_Z4hookiPKmPKiPiPb'
GPGPU-Sim uArch: Shader 21 bind to kernel 1 '_Z4hookiPKmPKiPiPb'
GPGPU-Sim uArch: Shader 22 bind to kernel 1 '_Z4hookiPKmPKiPiPb'
GPGPU-Sim uArch: Shader 23 bind to kernel 1 '_Z4hookiPKmPKiPiPb'
GPGPU-Sim uArch: Shader 24 bind to kernel 1 '_Z4hookiPKmPKiPiPb'
GPGPU-Sim uArch: Shader 25 bind to kernel 1 '_Z4hookiPKmPKiPiPb'
GPGPU-Sim uArch: Shader 26 bind to kernel 1 '_Z4hookiPKmPKiPiPb'
GPGPU-Sim uArch: Shader 27 bind to kernel 1 '_Z4hookiPKmPKiPiPb'
GPGPU-Sim uArch: Shader 28 bind to kernel 1 '_Z4hookiPKmPKiPiPb'
GPGPU-Sim uArch: Shader 29 bind to kernel 1 '_Z4hookiPKmPKiPiPb'
Destroy streams for kernel 1: size 0
kernel_name = _Z4hookiPKmPKiPiPb 
kernel_launch_uid = 1 
gpu_sim_cycle = 1260196
gpu_sim_insn = 24714075
gpu_ipc =      19.6113
gpu_tot_sim_cycle = 1260196
gpu_tot_sim_insn = 24714075
gpu_tot_ipc =      19.6113
gpu_tot_issued_cta = 90
gpu_occupancy = 39.3558% 
gpu_tot_occupancy = 39.3558% 
max_total_param_size = 0
gpu_stall_dramfull = 17401
gpu_stall_icnt2sh    = 0
partiton_level_parallism =       1.8339
partiton_level_parallism_total  =       1.8339
partiton_level_parallism_util =      10.7647
partiton_level_parallism_util_total  =      10.7647
L2_BW  =      80.1044 GB/Sec
L2_BW_total  =      80.1044 GB/Sec
gpu_total_sim_rate=7368

========= Core cache stats =========
L1I_cache:
	L1I_total_cache_accesses = 0
	L1I_total_cache_misses = 0
	L1I_total_cache_pending_hits = 0
	L1I_total_cache_reservation_fails = 0
L1D_cache:
	L1D_cache_core[0]: Access = 144673, Miss = 83448, Miss_rate = 0.577, Pending_hits = 2218, Reservation_fails = 135249
	L1D_cache_core[1]: Access = 127698, Miss = 76127, Miss_rate = 0.596, Pending_hits = 2190, Reservation_fails = 117450
	L1D_cache_core[2]: Access = 127622, Miss = 74917, Miss_rate = 0.587, Pending_hits = 2141, Reservation_fails = 119551
	L1D_cache_core[3]: Access = 141730, Miss = 81727, Miss_rate = 0.577, Pending_hits = 2323, Reservation_fails = 137143
	L1D_cache_core[4]: Access = 128035, Miss = 75942, Miss_rate = 0.593, Pending_hits = 2249, Reservation_fails = 117095
	L1D_cache_core[5]: Access = 133486, Miss = 78305, Miss_rate = 0.587, Pending_hits = 2304, Reservation_fails = 136847
	L1D_cache_core[6]: Access = 133195, Miss = 77656, Miss_rate = 0.583, Pending_hits = 2488, Reservation_fails = 127970
	L1D_cache_core[7]: Access = 129779, Miss = 74110, Miss_rate = 0.571, Pending_hits = 2172, Reservation_fails = 118726
	L1D_cache_core[8]: Access = 138611, Miss = 80024, Miss_rate = 0.577, Pending_hits = 2534, Reservation_fails = 134922
	L1D_cache_core[9]: Access = 124030, Miss = 71436, Miss_rate = 0.576, Pending_hits = 2206, Reservation_fails = 122341
	L1D_cache_core[10]: Access = 138535, Miss = 77465, Miss_rate = 0.559, Pending_hits = 2352, Reservation_fails = 127478
	L1D_cache_core[11]: Access = 140266, Miss = 81656, Miss_rate = 0.582, Pending_hits = 2559, Reservation_fails = 145920
	L1D_cache_core[12]: Access = 132811, Miss = 75020, Miss_rate = 0.565, Pending_hits = 2200, Reservation_fails = 126811
	L1D_cache_core[13]: Access = 129047, Miss = 75077, Miss_rate = 0.582, Pending_hits = 2345, Reservation_fails = 138514
	L1D_cache_core[14]: Access = 140410, Miss = 81573, Miss_rate = 0.581, Pending_hits = 2508, Reservation_fails = 154400
	L1D_cache_core[15]: Access = 132775, Miss = 75463, Miss_rate = 0.568, Pending_hits = 2385, Reservation_fails = 130625
	L1D_cache_core[16]: Access = 138122, Miss = 77971, Miss_rate = 0.565, Pending_hits = 2439, Reservation_fails = 141950
	L1D_cache_core[17]: Access = 133458, Miss = 75248, Miss_rate = 0.564, Pending_hits = 2448, Reservation_fails = 137346
	L1D_cache_core[18]: Access = 143733, Miss = 83340, Miss_rate = 0.580, Pending_hits = 2541, Reservation_fails = 162414
	L1D_cache_core[19]: Access = 139281, Miss = 79750, Miss_rate = 0.573, Pending_hits = 2466, Reservation_fails = 150992
	L1D_cache_core[20]: Access = 133674, Miss = 76552, Miss_rate = 0.573, Pending_hits = 2379, Reservation_fails = 139101
	L1D_cache_core[21]: Access = 128936, Miss = 74420, Miss_rate = 0.577, Pending_hits = 2464, Reservation_fails = 142342
	L1D_cache_core[22]: Access = 135793, Miss = 77107, Miss_rate = 0.568, Pending_hits = 2352, Reservation_fails = 142375
	L1D_cache_core[23]: Access = 125459, Miss = 71861, Miss_rate = 0.573, Pending_hits = 2356, Reservation_fails = 140300
	L1D_cache_core[24]: Access = 131037, Miss = 73487, Miss_rate = 0.561, Pending_hits = 2343, Reservation_fails = 134045
	L1D_cache_core[25]: Access = 135210, Miss = 76304, Miss_rate = 0.564, Pending_hits = 2414, Reservation_fails = 135988
	L1D_cache_core[26]: Access = 140649, Miss = 78497, Miss_rate = 0.558, Pending_hits = 2587, Reservation_fails = 147493
	L1D_cache_core[27]: Access = 143576, Miss = 78702, Miss_rate = 0.548, Pending_hits = 2405, Reservation_fails = 150062
	L1D_cache_core[28]: Access = 142634, Miss = 77443, Miss_rate = 0.543, Pending_hits = 2427, Reservation_fails = 138889
	L1D_cache_core[29]: Access = 108881, Miss = 60448, Miss_rate = 0.555, Pending_hits = 1972, Reservation_fails = 86641
	L1D_total_cache_accesses = 4023146
	L1D_total_cache_misses = 2301076
	L1D_total_cache_miss_rate = 0.5720
	L1D_total_cache_pending_hits = 70767
	L1D_total_cache_reservation_fails = 4040980
	L1D_cache_data_port_util = 0.137
	L1D_cache_fill_port_util = 0.191
L1C_cache:
	L1C_total_cache_accesses = 0
	L1C_total_cache_misses = 0
	L1C_total_cache_pending_hits = 0
	L1C_total_cache_reservation_fails = 0
L1T_cache:
	L1T_total_cache_accesses = 0
	L1T_total_cache_misses = 0
	L1T_total_cache_pending_hits = 0
	L1T_total_cache_reservation_fails = 0

Total_core_cache_stats:
	Total_core_cache_stats_breakdown[GLOBAL_ACC_R][HIT] = 1641315
	Total_core_cache_stats_breakdown[GLOBAL_ACC_R][HIT_RESERVED] = 70767
	Total_core_cache_stats_breakdown[GLOBAL_ACC_R][MISS] = 1852245
	Total_core_cache_stats_breakdown[GLOBAL_ACC_R][RESERVATION_FAIL] = 4040684
	Total_core_cache_stats_breakdown[GLOBAL_ACC_R][SECTOR_MISS] = 448792
	Total_core_cache_stats_breakdown[GLOBAL_ACC_R][MSHR_HIT] = 70767
	Total_core_cache_stats_breakdown[LOCAL_ACC_R][HIT] = 0
	Total_core_cache_stats_breakdown[LOCAL_ACC_R][HIT_RESERVED] = 0
	Total_core_cache_stats_breakdown[LOCAL_ACC_R][MISS] = 0
	Total_core_cache_stats_breakdown[LOCAL_ACC_R][RESERVATION_FAIL] = 0
	Total_core_cache_stats_breakdown[LOCAL_ACC_R][SECTOR_MISS] = 0
	Total_core_cache_stats_breakdown[LOCAL_ACC_R][MSHR_HIT] = 0
	Total_core_cache_stats_breakdown[CONST_ACC_R][HIT] = 0
	Total_core_cache_stats_breakdown[CONST_ACC_R][HIT_RESERVED] = 0
	Total_core_cache_stats_breakdown[CONST_ACC_R][MISS] = 0
	Total_core_cache_stats_breakdown[CONST_ACC_R][RESERVATION_FAIL] = 0
	Total_core_cache_stats_breakdown[CONST_ACC_R][SECTOR_MISS] = 0
	Total_core_cache_stats_breakdown[CONST_ACC_R][MSHR_HIT] = 0
	Total_core_cache_stats_breakdown[TEXTURE_ACC_R][HIT] = 0
	Total_core_cache_stats_breakdown[TEXTURE_ACC_R][HIT_RESERVED] = 0
	Total_core_cache_stats_breakdown[TEXTURE_ACC_R][MISS] = 0
	Total_core_cache_stats_breakdown[TEXTURE_ACC_R][RESERVATION_FAIL] = 0
	Total_core_cache_stats_breakdown[TEXTURE_ACC_R][SECTOR_MISS] = 0
	Total_core_cache_stats_breakdown[TEXTURE_ACC_R][MSHR_HIT] = 0
	Total_core_cache_stats_breakdown[GLOBAL_ACC_W][HIT] = 9988
	Total_core_cache_stats_breakdown[GLOBAL_ACC_W][HIT_RESERVED] = 0
	Total_core_cache_stats_breakdown[GLOBAL_ACC_W][MISS] = 37
	Total_core_cache_stats_breakdown[GLOBAL_ACC_W][RESERVATION_FAIL] = 296
	Total_core_cache_stats_breakdown[GLOBAL_ACC_W][SECTOR_MISS] = 2
	Total_core_cache_stats_breakdown[GLOBAL_ACC_W][MSHR_HIT] = 0
	Total_core_cache_stats_breakdown[LOCAL_ACC_W][HIT] = 0
	Total_core_cache_stats_breakdown[LOCAL_ACC_W][HIT_RESERVED] = 0
	Total_core_cache_stats_breakdown[LOCAL_ACC_W][MISS] = 0
	Total_core_cache_stats_breakdown[LOCAL_ACC_W][RESERVATION_FAIL] = 0
	Total_core_cache_stats_breakdown[LOCAL_ACC_W][SECTOR_MISS] = 0
	Total_core_cache_stats_breakdown[LOCAL_ACC_W][MSHR_HIT] = 0
	Total_core_cache_stats_breakdown[L1_WRBK_ACC][HIT] = 0
	Total_core_cache_stats_breakdown[L1_WRBK_ACC][HIT_RESERVED] = 0
	Total_core_cache_stats_breakdown[L1_WRBK_ACC][MISS] = 0
	Total_core_cache_stats_breakdown[L1_WRBK_ACC][RESERVATION_FAIL] = 0
	Total_core_cache_stats_breakdown[L1_WRBK_ACC][SECTOR_MISS] = 0
	Total_core_cache_stats_breakdown[L1_WRBK_ACC][MSHR_HIT] = 0
	Total_core_cache_stats_breakdown[L2_WRBK_ACC][HIT] = 0
	Total_core_cache_stats_breakdown[L2_WRBK_ACC][HIT_RESERVED] = 0
	Total_core_cache_stats_breakdown[L2_WRBK_ACC][MISS] = 0
	Total_core_cache_stats_breakdown[L2_WRBK_ACC][RESERVATION_FAIL] = 0
	Total_core_cache_stats_breakdown[L2_WRBK_ACC][SECTOR_MISS] = 0
	Total_core_cache_stats_breakdown[L2_WRBK_ACC][MSHR_HIT] = 0
	Total_core_cache_stats_breakdown[INST_ACC_R][HIT] = 0
	Total_core_cache_stats_breakdown[INST_ACC_R][HIT_RESERVED] = 0
	Total_core_cache_stats_breakdown[INST_ACC_R][MISS] = 0
	Total_core_cache_stats_breakdown[INST_ACC_R][RESERVATION_FAIL] = 0
	Total_core_cache_stats_breakdown[INST_ACC_R][SECTOR_MISS] = 0
	Total_core_cache_stats_breakdown[INST_ACC_R][MSHR_HIT] = 0
	Total_core_cache_stats_breakdown[L1_WR_ALLOC_R][HIT] = 0
	Total_core_cache_stats_breakdown[L1_WR_ALLOC_R][HIT_RESERVED] = 0
	Total_core_cache_stats_breakdown[L1_WR_ALLOC_R][MISS] = 0
	Total_core_cache_stats_breakdown[L1_WR_ALLOC_R][RESERVATION_FAIL] = 0
	Total_core_cache_stats_breakdown[L1_WR_ALLOC_R][SECTOR_MISS] = 0
	Total_core_cache_stats_breakdown[L1_WR_ALLOC_R][MSHR_HIT] = 0
	Total_core_cache_stats_breakdown[L2_WR_ALLOC_R][HIT] = 0
	Total_core_cache_stats_breakdown[L2_WR_ALLOC_R][HIT_RESERVED] = 0
	Total_core_cache_stats_breakdown[L2_WR_ALLOC_R][MISS] = 0
	Total_core_cache_stats_breakdown[L2_WR_ALLOC_R][RESERVATION_FAIL] = 0
	Total_core_cache_stats_breakdown[L2_WR_ALLOC_R][SECTOR_MISS] = 0
	Total_core_cache_stats_breakdown[L2_WR_ALLOC_R][MSHR_HIT] = 0
	Total_core_cache_stats_breakdown[GLOBAL_ACC_R][TOTAL_ACCESS] = 4013119
	Total_core_cache_stats_breakdown[GLOBAL_ACC_W][TOTAL_ACCESS] = 10027

Total_core_cache_fail_stats:
	Total_core_cache_fail_stats_breakdown[GLOBAL_ACC_R][MISS_QUEUE_FULL] = 196439
	Total_core_cache_fail_stats_breakdown[GLOBAL_ACC_R][MSHR_ENRTY_FAIL] = 3844245
	Total_core_cache_fail_stats_breakdown[GLOBAL_ACC_W][MISS_QUEUE_FULL] = 296
ctas_completed 90, Shader 0 warp_id issue ditsribution:
warp_id:
0, 1, 2, 3, 4, 5, 6, 7, 8, 9, 10, 11, 12, 13, 14, 15, 16, 17, 18, 19, 20, 21, 22, 23, 
distro:
3902, 7286, 3964, 5850, 2340, 5256, 10972, 1908, 5142, 4362, 9154, 4482, 5686, 3526, 7184, 5864, 7782, 2982, 18034, 4604, 5922, 3404, 3282, 3882, 
gpgpu_n_tot_thrd_icount = 110473792
gpgpu_n_tot_w_icount = 3452306
gpgpu_n_stall_shd_mem = 2216513
gpgpu_n_mem_read_local = 0
gpgpu_n_mem_write_local = 0
gpgpu_n_mem_read_global = 2301037
gpgpu_n_mem_write_global = 10027
gpgpu_n_mem_texture = 0
gpgpu_n_mem_const = 0
gpgpu_n_load_insn  = 5168192
gpgpu_n_store_insn = 46756
gpgpu_n_shmem_insn = 0
gpgpu_n_sstarr_insn = 0
gpgpu_n_tex_insn = 0
gpgpu_n_const_mem_insn = 0
gpgpu_n_param_mem_insn = 115200
gpgpu_n_shmem_bkconflict = 0
gpgpu_n_cache_bkconflict = 0
gpgpu_n_intrawarp_mshr_merge = 0
gpgpu_n_cmem_portconflict = 0
gpgpu_stall_shd_mem[c_mem][resource_stall] = 0
gpgpu_stall_shd_mem[s_mem][bk_conf] = 0
gpgpu_stall_shd_mem[gl_mem][resource_stall] = 2114549
gpgpu_stall_shd_mem[gl_mem][coal_stall] = 101964
gpgpu_stall_shd_mem[gl_mem][data_port_stall] = 0
gpu_reg_bank_conflict_stalls = 0
Warp Occupancy Distribution:
Stall:72230	W0_Idle:12963059	W0_Scoreboard:31655253	W1:1057566	W2:382406	W3:248712	W4:184764	W5:148593	W6:116232	W7:106202	W8:98200	W9:85279	W10:74616	W11:70632	W12:61111	W13:63089	W14:59438	W15:49839	W16:51999	W17:49438	W18:45034	W19:41534	W20:43452	W21:43111	W22:42927	W23:40121	W24:39880	W25:36994	W26:37062	W27:36914	W28:34782	W29:29213	W30:25711	W31:17056	W32:30399
single_issue_nums: WS0:904939	WS1:848461	WS2:858729	WS3:840177	
dual_issue_nums: WS0:0	WS1:0	WS2:0	WS3:0	
traffic_breakdown_coretomem[GLOBAL_ACC_R] = 18408296 {8:2301037,}
traffic_breakdown_coretomem[GLOBAL_ACC_W] = 401080 {40:10027,}
traffic_breakdown_memtocore[GLOBAL_ACC_R] = 92041480 {40:2301037,}
traffic_breakdown_memtocore[GLOBAL_ACC_W] = 80216 {8:10027,}
maxmflatency = 3096 
max_icnt2mem_latency = 1489 
maxmrqlatency = 812 
max_icnt2sh_latency = 77 
averagemflatency = 440 
avg_icnt2mem_latency = 221 
avg_mrq_latency = 13 
avg_icnt2sh_latency = 4 
mrq_lat_table:192028 	2755 	5357 	11402 	12293 	6466 	4547 	5430 	3010 	99 	0 	0 	0 	0 	0 	0 	0 	0 	0 	0 	0 	0 	0 	0 	0 	0 	0 	0 	0 	0 	0 	0 	
dq_lat_table:0 	0 	0 	0 	0 	0 	0 	0 	0 	0 	0 	0 	0 	0 	0 	0 	0 	0 	0 	0 	0 	0 	0 	0 	0 	0 	0 	0 	0 	0 	0 	0 	
mf_lat_table:0 	0 	0 	0 	0 	0 	0 	381688 	1302162 	616430 	9954 	830 	0 	0 	0 	0 	0 	0 	0 	0 	0 	0 	0 	0 	0 	0 	0 	0 	0 	0 	0 	0 	
icnt2mem_lat_table:0 	0 	0 	0 	0 	498828 	147533 	572966 	1076761 	14903 	73 	0 	0 	0 	0 	0 	0 	0 	0 	0 	0 	0 	0 	0 	
icnt2sh_lat_table:0 	1184388 	746392 	323462 	53884 	2834 	104 	0 	0 	0 	0 	0 	0 	0 	0 	0 	0 	0 	0 	0 	0 	0 	0 	0 	
mf_lat_pw_table:0 	0 	0 	0 	0 	0 	0 	520 	677 	58 	0 	0 	0 	0 	0 	0 	0 	0 	0 	0 	0 	0 	0 	0 	0 	0 	0 	0 	0 	0 	0 	0 	
maximum concurrent accesses to same row:
dram[0]:        64        64        64        64        64        64        48        48         5         4         8         8         5         4         7         4 
dram[1]:        64        64        62        64        52        56        48        49         5         5         8         7         5         5         5         4 
dram[2]:        64        64        61        60        56        50        50        48         3         5         5         5         7         5         4         4 
dram[3]:        64        64        57        60        56        56        49        48         5         4         6         4         6         5         4         4 
dram[4]:        64        64        64        64        64        64        48        49         5         6         4         5         7         8         6         6 
dram[5]:        64        64        55        64        64        64        48        49         4         4         4         4         6         4         4         5 
dram[6]:        64        64        55        60        64        61        48        49         5         7         5         5         4         4         5         6 
dram[7]:        64        64        56        64        64        64        49        47         4         4         4         5         5         5         7         8 
dram[8]:        64        64        64        64        64        64        44        44         6         5         5         4         8         8         4         4 
dram[9]:        64        64        64        64        64        64        44        44         5         6         4         4         8         5         4         4 
dram[10]:        64        64        58        64        64        64        44        44         7         8         5         8         4         4         4         6 
dram[11]:        64        64        58        58        64        64        44        44         5         8         7         5         5         7         7         6 
maximum service time to same row:
dram[0]:     84643     86069     39645     43527    156074    165557     71138     75196     54291     50655    108985    107981    101081     99727     60299     17256 
dram[1]:     87708     90562     46493     50743    167180    198422     77226     94666     48539     44848    110543    112179    104663    105170     15061     12106 
dram[2]:    154334    150625     64674     61090    199035    199791     98072    100841     10037     20786    114765    178729    105361    103532     90154     91573 
dram[3]:    177855    174301     59942     63818    200552    200918    104242    105313     20818     20627    176496    176902    102880     99834     90760     89542 
dram[4]:    170993    167909     67431     54367    203533    204528    109170    113433     23455     24792    176457    175645     97805    119409     89743     89541 
dram[5]:    165838    163973     54127     53492    206316     35301    124714    127353     27349     25632    175037    175551    116881    151602     90150     90557 
dram[6]:    162718    164470    132747     28200     34691     77635    129586    132630     43067     26216    174036    173629    157852    159806     90760     46964 
dram[7]:    165685    166294     36303     55165     78892     82296    132022    135474     32110     32712    175046    177076    159210    162029     64329     63603 
dram[8]:     78248    112971     52446     50296     86299    120375    138317    141363     35764     25952    180169    180981    214696    214153     16269     12540 
dram[9]:    110232    107908    124878    122412    100538    104597    230537     37650     34992     31057    181997    184636    214673    215114     19613     18493 
dram[10]:     71438     70442     22904     43224    149481    152308     55426     58224     31124     29607    187275    113157    172253    170285     63971     60383 
dram[11]:     80928     82417     38008     40043    154044    152655     61414     67698     44989     79995    114754    111221     96442     99045     61784     59782 
average row accesses per activate:
dram[0]:  1.163303  1.171429  1.178672  1.174294  1.196445  1.202742  1.153052  1.127341  1.111111  1.128397  1.142726  1.122115  1.109462  1.132576  1.117994  1.100678 
dram[1]:  1.168937  1.153444  1.161860  1.178473  1.170664  1.168717  1.161150  1.169957  1.111301  1.123077  1.122414  1.139456  1.134157  1.135040  1.118124  1.111213 
dram[2]:  1.159030  1.146451  1.169476  1.170391  1.190037  1.185357  1.176688  1.174152  1.090372  1.111017  1.118525  1.142582  1.106460  1.112014  1.129735  1.119334 
dram[3]:  1.177799  1.186284  1.192898  1.173346  1.197887  1.207530  1.169881  1.180909  1.105448  1.102342  1.122598  1.125333  1.115703  1.146654  1.117819  1.116236 
dram[4]:  1.205699  1.193945  1.166096  1.181153  1.193152  1.176262  1.160451  1.167451  1.094958  1.103685  1.114518  1.135352  1.131997  1.140946  1.113518  1.085566 
dram[5]:  1.167798  1.155794  1.181818  1.191426  1.210577  1.182975  1.173020  1.173871  1.108992  1.106691  1.137899  1.125933  1.110906  1.096981  1.105614  1.125725 
dram[6]:  1.150327  1.171980  1.170400  1.171007  1.165485  1.176809  1.171261  1.161454  1.116527  1.109277  1.126783  1.157168  1.127033  1.102058  1.134537  1.134632 
dram[7]:  1.171077  1.162135  1.188487  1.177043  1.182078  1.162476  1.163094  1.163516  1.115560  1.098709  1.134862  1.140097  1.116761  1.106464  1.118371  1.123563 
dram[8]:  1.172619  1.161752  1.176313  1.174863  1.175295  1.177122  1.195185  1.178672  1.105738  1.132404  1.144167  1.142483  1.103076  1.093228  1.113257  1.098165 
dram[9]:  1.185388  1.199156  1.180205  1.155423  1.184713  1.175941  1.152815  1.146104  1.113935  1.116406  1.141450  1.133065  1.108478  1.103973  1.137398  1.133106 
dram[10]:  1.170755  1.187617  1.173372  1.182665  1.173993  1.185399  1.150772  1.170193  1.128546  1.132906  1.149030  1.138713  1.091453  1.096715  1.114497  1.120379 
dram[11]:  1.161410  1.158984  1.161723  1.172244  1.189971  1.199166  1.155251  1.171311  1.126468  1.120837  1.108911  1.124640  1.109091  1.122075  1.156844  1.137412 
average row locality = 243387/212262 = 1.146635
number of total memory accesses made:
dram[0]:         0         0         0         0         0         0         0         0         0         0         0         0         0         0         0         0 
dram[1]:         0         0         0         0         0         0         0         0         0         0         0         0         0         0         0         0 
dram[2]:         0         0         0         0         0         0         0         0         0         0         0         0         0         0         0         0 
dram[3]:         0         0         0         0         0         0         0         0         0         0         0         0         0         0         0         0 
dram[4]:         0         0         0         0         0         0         0         0         0         0         0         0         0         0         0         0 
dram[5]:         0         0         0         0         0         0         0         0         0         0         0         0         0         0         0         0 
dram[6]:         0         0         0         0         0         0         0         0         0         0         0         0         0         0         0         0 
dram[7]:         0         0         0         0         0         0         0         0         0         0         0         0         0         0         0         0 
dram[8]:         0         0         0         0         0         0         0         0         0         0         0         0         0         0         0         0 
dram[9]:         0         0         0         0         0         0         0         0         0         0         0         0         0         0         0         0 
dram[10]:         0         0         0         0         0         0         0         0         0         0         0         0         0         0         0         0 
dram[11]:         0         0         0         0         0         0         0         0         0         0         0         0         0         0         0         0 
total accesses: 0
min_bank_accesses = 0!
min_chip_accesses = 0!
number of total read accesses:
dram[0]:      1267      1188      1260      1206      1279      1228      1228      1204      1240      1204      1241      1167      1195      1194      1137      1136 
dram[1]:      1286      1321      1249      1281      1269      1330      1333      1363      1298      1314      1302      1340      1284      1285      1239      1208 
dram[2]:      1288      1275      1249      1257      1290      1279      1272      1281      1291      1311      1274      1186      1215      1229      1193      1208 
dram[3]:      1251      1278      1243      1259      1247      1315      1274      1299      1258      1271      1227      1266      1214      1250      1148      1210 
dram[4]:      1352      1260      1362      1291      1359      1328      1338      1241      1303      1288      1236      1275      1353      1279      1283      1256 
dram[5]:      1204      1187      1196      1195      1259      1209      1200      1222      1221      1224      1213      1207      1202      1199      1162      1164 
dram[6]:      1407      1396      1463      1349      1479      1431      1402      1374      1466      1411      1422      1340      1454      1339      1382      1338 
dram[7]:      1239      1154      1280      1210      1240      1202      1248      1231      1226      1191      1237      1180      1183      1162      1179      1173 
dram[8]:      1376      1300      1321      1290      1294      1276      1390      1260      1349      1300      1373      1307      1326      1242      1267      1197 
dram[9]:      1298      1416      1264      1353      1302      1437      1290      1412      1271      1429      1275      1405      1215      1304      1248      1327 
dram[10]:      1241      1265      1225      1269      1282      1234      1267      1272      1273      1236      1303      1256      1275      1200      1207      1180 
dram[11]:      1252      1232      1214      1191      1234      1150      1265      1135      1247      1178      1232      1173      1218      1102      1216      1134 
total dram reads = 243312
bank skew: 1479/1102 = 1.34
chip skew: 22453/19173 = 1.17
number of total write accesses:
dram[0]:         4         4         0         0         0         0         0         0         0         0         0         0         4         5         0         4 
dram[1]:         4         6         0         0         0         0         0         0         0         0         0         0         4         4         4         4 
dram[2]:         8         4         0         0         0         0         0         0         0         0         0         0         4         8         0         8 
dram[3]:         4         8         0         0         0         0         0         0         0         0         0         0         4         4         0         0 
dram[4]:         8         7         0         0         0         0         0         0         0         0         0         0         8         0         8         0 
dram[5]:         0         0         0         0         0         0         0         0         0         0         0         0         0         0         0         0 
dram[6]:         4         4         0         0         0         0         0         0         0         0         0         0         4         0         4         8 
dram[7]:         0         0         0         0         0         0         0         0         0         0         0         0        11         8         8         0 
dram[8]:        11         0         0         0         0         0         0         0         0         0         0         0         4         4         4         0 
dram[9]:         0        20         0         0         0         0         0         0         0         0         0         0         4         8         8         4 
dram[10]:         0         4         0         0         0         0         0         0         0         0         0         0         8         8         0         8 
dram[11]:         0         0         0         0         0         0         0         0         0         0         0         0         8         4         4         0 
total dram writes = 292
min_bank_accesses = 0!
min_chip_accesses = 0!
average mf latency per bank:
dram[0]:       4447      4645      2302      2522      2245      2396      2502      2477      2426      2636      2501      2698      6661      6674     11719     11819
dram[1]:       4526      4210      2486      2475      2411      2254      2169      2199      2502      2478      2464      2346      6520      6340     10667     10551
dram[2]:       4209      4472      2479      2433      2371      2377      2443      2363      2451      2206      2437      2645      6883      6556     10849     10945
dram[3]:       4420      4423      2485      2569      2375      2197      2446      2426      2388      2476      2455      2448      6548      6767     11989     11354
dram[4]:       4322      4377      2452      2553      2207      2210      2333      2499      2361      2387      2528      2530      5888      6459     10588     11040
dram[5]:       5051      4490      2547      2499      2311      2488      2520      2351      2546      2529      2536      2510      6869      6841     11411     11284
dram[6]:       3494      3603      2187      2320      2149      2299      2025      2167      2206      2352      2200      2425      5782      6386      9599     10189
dram[7]:       4365      4654      2386      2393      2566      2475      2431      2365      2719      2636      2607      2582      6895      7167     11076     10916
dram[8]:       3799      4074      2214      2369      2354      2425      2223      2632      2204      2489      2313      2474      6562      6731     10837     11081
dram[9]:       4076      3704      2408      2129      2384      2175      2472      2194      2614      2357      2455      2333      7064      6704     10060      9608
dram[10]:       4233      4271      2297      2150      2366      2370      2344      2289      2633      2670      2553      2570      6897      6833     10698     10806
dram[11]:       4023      4135      2261      2349      2456      2538      2425      2635      2716      2703      2591      2565      6936      7568     10710     11503
maximum mf latency per bank:
dram[0]:       2458      2108      2512      2422      2502      2428      2368      2004      2619      2390      2133      2295      2700      2763      2120      2473
dram[1]:       2040      2258      2013      2412      2454      2207      2061      2486      2042      2147      2217      2379      2281      2380      2451      2311
dram[2]:       2337      2424      2347      2210      2441      2161      2307      1948      2201      2179      2899      2330      2358      2279      2500      2374
dram[3]:       2129      2508      2444      2536      2583      2793      2906      2437      2369      2655      2450      2468      2041      2690      2503      2423
dram[4]:       2373      2499      2083      2279      2440      2753      2269      2475      2402      2182      2370      2634      2107      2672      2035      2221
dram[5]:       2155      2183      1950      1939      2453      2397      2086      2152      2367      2139      2225      2416      1936      2302      2380      2733
dram[6]:       2211      2572      2281      2415      2717      2273      2311      2364      2476      2507      2420      2667      2718      3096      2915      2688
dram[7]:       1939      2286      2043      1962      2140      2385      2047      2247      2325      1974      2081      2113      2107      2087      1864      2405
dram[8]:       2583      2243      2284      2448      2283      2693      2587      2151      2498      2421      2642      2289      2249      2405      2293      2149
dram[9]:       2183      2178      1630      1982      2151      2311      2224      2681      2516      2057      2100      2748      2701      2359      1933      2515
dram[10]:       2046      2119      1879      1963      1956      2509      2076      2118      2079      1962      2437      2263      2172      2284      2058      1946
dram[11]:       2114      2238      2151      2007      2440      2334      2434      2424      2248      2263      2239      2147      2179      2363      2442      1698

Number of Memory Banks Accessed per Memory Operation per Warp (from 0):
0	0	0	0	0	0	0	0	0	0	0	0	0	0	0	0	0	0	0	0	0	0	0	0	0	0	0	0	0	0	0	0	0	0	0	0	0	0	0	0	0	0	0	0	0	0	0	0	0	0	0	0	0	0	0	0	0	0	0	0	0	0	0	0	0	0	0	0	0	0	0	0	0	0	0	0	0	0	0	0	0	0	0	0	0	0	0	0	0	0	0	0	0	0	0	0	0	0	0	0	0	0	0	0	0	0	0	0	0	0	0	0	0	0	0	0	0	0	0	0	0	0	0	0	0	0	0	0	0	0	0	0	0	0	0	0	0	0	0	0	0	0	0	0	0	0	0	0	0	0	0	0	0	0	0	0	0	0	0	0	0	0	0	0	0	0	0	0	0	0	0	0	0	0	0	0	0	0	0	0	0	0	0	0	0	0	0	0	0	0	0	0	
Average # of Memory Banks Accessed per Memory Operation per Warp=-nan

position of mrq chosen
0	0	0	0	0	0	0	0	0	0	0	0	0	0	0	0	0	0	0	0	0	0	0	0	0	0	0	0	0	0	0	0	0	0	0	0	0	0	0	0	0	0	0	0	0	0	0	0	0	0	0	0	0	0	0	0	0	0	0	0	0	0	0	0	

average position of mrq chosen = -nan
Memory Partition 0: 
Cache L2_bank_000:
MSHR contents

Cache L2_bank_001:
MSHR contents

In Dram Latency Queue (total = 0): 
DRAM[0]: 16 bks, busW=2 BL=16 CL=24, tRRD=12 tCCD=4, tRCD=24 tRAS=55 tRP=24 tRC=78
n_cmd=3231731 n_nop=3179962 n_act=16927 n_pre=16911 n_ref_event=0 n_req=19380 n_rd=19374 n_rd_L2_A=0 n_write=0 n_wr_bk=21 bw_util=0.02401
n_activity=521551 dram_eff=0.1487
bk0: 1267a 3162594i bk1: 1188a 3168397i bk2: 1260a 3164644i bk3: 1206a 3167124i bk4: 1279a 3163352i bk5: 1228a 3167025i bk6: 1228a 3165178i bk7: 1204a 3165396i bk8: 1240a 3161692i bk9: 1204a 3164840i bk10: 1241a 3163298i bk11: 1167a 3167208i bk12: 1195a 3164663i bk13: 1194a 3165606i bk14: 1137a 3168970i bk15: 1136a 3167299i 

------------------------------------------------------------------------

Row_Buffer_Locality = 0.127090
Row_Buffer_Locality_read = 0.127129
Row_Buffer_Locality_write = 0.000000
Bank_Level_Parallism = 2.455276
Bank_Level_Parallism_Col = 1.387805
Bank_Level_Parallism_Ready = 1.084198
write_to_read_ratio_blp_rw_average = 0.000609
GrpLevelPara = 1.306395 

BW Util details:
bwutil = 0.024006 
total_CMD = 3231731 
util_bw = 77580 
Wasted_Col = 257123 
Wasted_Row = 108440 
Idle = 2788588 

BW Util Bottlenecks: 
RCDc_limit = 340602 
RCDWRc_limit = 64 
WTRc_limit = 203 
RTWc_limit = 160 
CCDLc_limit = 8226 
rwq = 0 
CCDLc_limit_alone = 8206 
WTRc_limit_alone = 185 
RTWc_limit_alone = 158 

Commands details: 
total_CMD = 3231731 
n_nop = 3179962 
Read = 19374 
Write = 0 
L2_Alloc = 0 
L2_WB = 21 
n_act = 16927 
n_pre = 16911 
n_ref = 0 
n_req = 19380 
total_req = 19395 

Dual Bus Interface Util: 
issued_total_row = 33838 
issued_total_col = 19395 
Row_Bus_Util =  0.010471 
CoL_Bus_Util = 0.006001 
Either_Row_CoL_Bus_Util = 0.016019 
Issued_on_Two_Bus_Simul_Util = 0.000453 
issued_two_Eff = 0.028279 
queue_avg = 0.197041 


dram_util_bins: 0 0 0 0 0 0 0 0 0 0
dram_eff_bins: 0 0 0 0 0 0 0 0 0 0
mrqq: max=64 avg=0.197041
Memory Partition 1: 
Cache L2_bank_002:
MSHR contents

Cache L2_bank_003:
MSHR contents

In Dram Latency Queue (total = 0): 
DRAM[1]: 16 bks, busW=2 BL=16 CL=24, tRRD=12 tCCD=4, tRCD=24 tRAS=55 tRP=24 tRC=78
n_cmd=3231731 n_nop=3176920 n_act=18095 n_pre=18079 n_ref_event=0 n_req=20709 n_rd=20702 n_rd_L2_A=0 n_write=0 n_wr_bk=26 bw_util=0.02566
n_activity=526774 dram_eff=0.1574
bk0: 1286a 3162252i bk1: 1321a 3158138i bk2: 1249a 3162018i bk3: 1281a 3161360i bk4: 1269a 3161367i bk5: 1330a 3157010i bk6: 1333a 3157884i bk7: 1363a 3155865i bk8: 1298a 3156954i bk9: 1314a 3154995i bk10: 1302a 3158306i bk11: 1340a 3154229i bk12: 1284a 3158524i bk13: 1285a 3157297i bk14: 1239a 3160832i bk15: 1208a 3161637i 

------------------------------------------------------------------------

Row_Buffer_Locality = 0.126853
Row_Buffer_Locality_read = 0.126896
Row_Buffer_Locality_write = 0.000000
Bank_Level_Parallism = 2.675310
Bank_Level_Parallism_Col = 1.000000
Bank_Level_Parallism_Ready = 1.076815
write_to_read_ratio_blp_rw_average = 0.000000
GrpLevelPara = 0.000000 

BW Util details:
bwutil = 0.025656 
total_CMD = 3231731 
util_bw = 82912 
Wasted_Col = 260480 
Wasted_Row = 104709 
Idle = 2783630 

BW Util Bottlenecks: 
RCDc_limit = 355547 
RCDWRc_limit = 60 
WTRc_limit = 576 
RTWc_limit = 172 
CCDLc_limit = 9718 
rwq = 0 
CCDLc_limit_alone = 9696 
WTRc_limit_alone = 564 
RTWc_limit_alone = 162 

Commands details: 
total_CMD = 3231731 
n_nop = 3176920 
Read = 20702 
Write = 0 
L2_Alloc = 0 
L2_WB = 26 
n_act = 18095 
n_pre = 18079 
n_ref = 0 
n_req = 20709 
total_req = 20728 

Dual Bus Interface Util: 
issued_total_row = 36174 
issued_total_col = 20728 
Row_Bus_Util =  0.011193 
CoL_Bus_Util = 0.006414 
Either_Row_CoL_Bus_Util = 0.016960 
Issued_on_Two_Bus_Simul_Util = 0.000647 
issued_two_Eff = 0.038149 
queue_avg = 0.215412 


dram_util_bins: 0 0 0 0 0 0 0 0 0 0
dram_eff_bins: 0 0 0 0 0 0 0 0 0 0
mrqq: max=64 avg=0.215412
Memory Partition 2: 
Cache L2_bank_004:
MSHR contents

Cache L2_bank_005:
MSHR contents

In Dram Latency Queue (total = 0): 
DRAM[2]: 16 bks, busW=2 BL=16 CL=24, tRRD=12 tCCD=4, tRCD=24 tRAS=55 tRP=24 tRC=78
n_cmd=3231731 n_nop=3178150 n_act=17599 n_pre=17583 n_ref_event=0 n_req=20106 n_rd=20098 n_rd_L2_A=0 n_write=0 n_wr_bk=32 bw_util=0.02492
n_activity=519166 dram_eff=0.1551
bk0: 1288a 3161252i bk1: 1275a 3159522i bk2: 1249a 3163266i bk3: 1257a 3162613i bk4: 1290a 3162415i bk5: 1279a 3163859i bk6: 1272a 3163250i bk7: 1281a 3163237i bk8: 1291a 3157954i bk9: 1311a 3156754i bk10: 1274a 3160271i bk11: 1186a 3165742i bk12: 1215a 3161791i bk13: 1229a 3162032i bk14: 1193a 3164529i bk15: 1208a 3163986i 

------------------------------------------------------------------------

Row_Buffer_Locality = 0.125286
Row_Buffer_Locality_read = 0.125336
Row_Buffer_Locality_write = 0.000000
Bank_Level_Parallism = 2.586697
Bank_Level_Parallism_Col = 1.418206
Bank_Level_Parallism_Ready = 1.070227
write_to_read_ratio_blp_rw_average = 0.000678
GrpLevelPara = 1.330956 

BW Util details:
bwutil = 0.024915 
total_CMD = 3231731 
util_bw = 80520 
Wasted_Col = 258029 
Wasted_Row = 103560 
Idle = 2789622 

BW Util Bottlenecks: 
RCDc_limit = 348594 
RCDWRc_limit = 71 
WTRc_limit = 513 
RTWc_limit = 211 
CCDLc_limit = 8890 
rwq = 0 
CCDLc_limit_alone = 8868 
WTRc_limit_alone = 497 
RTWc_limit_alone = 205 

Commands details: 
total_CMD = 3231731 
n_nop = 3178150 
Read = 20098 
Write = 0 
L2_Alloc = 0 
L2_WB = 32 
n_act = 17599 
n_pre = 17583 
n_ref = 0 
n_req = 20106 
total_req = 20130 

Dual Bus Interface Util: 
issued_total_row = 35182 
issued_total_col = 20130 
Row_Bus_Util =  0.010886 
CoL_Bus_Util = 0.006229 
Either_Row_CoL_Bus_Util = 0.016580 
Issued_on_Two_Bus_Simul_Util = 0.000536 
issued_two_Eff = 0.032306 
queue_avg = 0.196448 


dram_util_bins: 0 0 0 0 0 0 0 0 0 0
dram_eff_bins: 0 0 0 0 0 0 0 0 0 0
mrqq: max=64 avg=0.196448
Memory Partition 3: 
Cache L2_bank_006:
MSHR contents

Cache L2_bank_007:
MSHR contents

In Dram Latency Queue (total = 0): 
DRAM[3]: 16 bks, busW=2 BL=16 CL=24, tRRD=12 tCCD=4, tRCD=24 tRAS=55 tRP=24 tRC=78
n_cmd=3231731 n_nop=3178737 n_act=17388 n_pre=17372 n_ref_event=0 n_req=20015 n_rd=20010 n_rd_L2_A=0 n_write=0 n_wr_bk=20 bw_util=0.02479
n_activity=522569 dram_eff=0.1533
bk0: 1251a 3164943i bk1: 1278a 3162173i bk2: 1243a 3164530i bk3: 1259a 3162811i bk4: 1247a 3165216i bk5: 1315a 3161672i bk6: 1274a 3161295i bk7: 1299a 3160428i bk8: 1258a 3159942i bk9: 1271a 3158968i bk10: 1227a 3162864i bk11: 1266a 3160930i bk12: 1214a 3163474i bk13: 1250a 3162706i bk14: 1148a 3166977i bk15: 1210a 3163269i 

------------------------------------------------------------------------

Row_Buffer_Locality = 0.131851
Row_Buffer_Locality_read = 0.131884
Row_Buffer_Locality_write = 0.000000
Bank_Level_Parallism = 2.561437
Bank_Level_Parallism_Col = 1.418593
Bank_Level_Parallism_Ready = 1.097283
write_to_read_ratio_blp_rw_average = 0.000862
GrpLevelPara = 1.324113 

BW Util details:
bwutil = 0.024792 
total_CMD = 3231731 
util_bw = 80120 
Wasted_Col = 257478 
Wasted_Row = 105277 
Idle = 2788856 

BW Util Bottlenecks: 
RCDc_limit = 345444 
RCDWRc_limit = 59 
WTRc_limit = 293 
RTWc_limit = 318 
CCDLc_limit = 8990 
rwq = 0 
CCDLc_limit_alone = 8960 
WTRc_limit_alone = 275 
RTWc_limit_alone = 306 

Commands details: 
total_CMD = 3231731 
n_nop = 3178737 
Read = 20010 
Write = 0 
L2_Alloc = 0 
L2_WB = 20 
n_act = 17388 
n_pre = 17372 
n_ref = 0 
n_req = 20015 
total_req = 20030 

Dual Bus Interface Util: 
issued_total_row = 34760 
issued_total_col = 20030 
Row_Bus_Util =  0.010756 
CoL_Bus_Util = 0.006198 
Either_Row_CoL_Bus_Util = 0.016398 
Issued_on_Two_Bus_Simul_Util = 0.000556 
issued_two_Eff = 0.033891 
queue_avg = 0.212454 


dram_util_bins: 0 0 0 0 0 0 0 0 0 0
dram_eff_bins: 0 0 0 0 0 0 0 0 0 0
mrqq: max=64 avg=0.212454
Memory Partition 4: 
Cache L2_bank_008:
MSHR contents

Cache L2_bank_009:
MSHR contents

In Dram Latency Queue (total = 0): 
DRAM[4]: 16 bks, busW=2 BL=16 CL=24, tRRD=12 tCCD=4, tRCD=24 tRAS=55 tRP=24 tRC=78
n_cmd=3231731 n_nop=3176662 n_act=18154 n_pre=18138 n_ref_event=0 n_req=20812 n_rd=20804 n_rd_L2_A=0 n_write=0 n_wr_bk=31 bw_util=0.02579
n_activity=519395 dram_eff=0.1605
bk0: 1352a 3158101i bk1: 1260a 3163098i bk2: 1362a 3155505i bk3: 1291a 3161668i bk4: 1359a 3158548i bk5: 1328a 3158551i bk6: 1338a 3156529i bk7: 1241a 3164116i bk8: 1303a 3156526i bk9: 1288a 3157998i bk10: 1236a 3162538i bk11: 1275a 3160609i bk12: 1353a 3155429i bk13: 1279a 3160041i bk14: 1283a 3158471i bk15: 1256a 3157863i 

------------------------------------------------------------------------

Row_Buffer_Locality = 0.128243
Row_Buffer_Locality_read = 0.128293
Row_Buffer_Locality_write = 0.000000
Bank_Level_Parallism = 2.692909
Bank_Level_Parallism_Col = 1.447870
Bank_Level_Parallism_Ready = 1.084007
write_to_read_ratio_blp_rw_average = 0.000739
GrpLevelPara = 1.350039 

BW Util details:
bwutil = 0.025788 
total_CMD = 3231731 
util_bw = 83340 
Wasted_Col = 259086 
Wasted_Row = 100020 
Idle = 2789285 

BW Util Bottlenecks: 
RCDc_limit = 355615 
RCDWRc_limit = 75 
WTRc_limit = 711 
RTWc_limit = 283 
CCDLc_limit = 9928 
rwq = 0 
CCDLc_limit_alone = 9890 
WTRc_limit_alone = 685 
RTWc_limit_alone = 271 

Commands details: 
total_CMD = 3231731 
n_nop = 3176662 
Read = 20804 
Write = 0 
L2_Alloc = 0 
L2_WB = 31 
n_act = 18154 
n_pre = 18138 
n_ref = 0 
n_req = 20812 
total_req = 20835 

Dual Bus Interface Util: 
issued_total_row = 36292 
issued_total_col = 20835 
Row_Bus_Util =  0.011230 
CoL_Bus_Util = 0.006447 
Either_Row_CoL_Bus_Util = 0.017040 
Issued_on_Two_Bus_Simul_Util = 0.000637 
issued_two_Eff = 0.037371 
queue_avg = 0.207784 


dram_util_bins: 0 0 0 0 0 0 0 0 0 0
dram_eff_bins: 0 0 0 0 0 0 0 0 0 0
mrqq: max=64 avg=0.207784
Memory Partition 5: 
Cache L2_bank_010:
MSHR contents

Cache L2_bank_011:
MSHR contents

In Dram Latency Queue (total = 0): 
DRAM[5]: 16 bks, busW=2 BL=16 CL=24, tRRD=12 tCCD=4, tRCD=24 tRAS=55 tRP=24 tRC=78
n_cmd=3231731 n_nop=3180601 n_act=16817 n_pre=16801 n_ref_event=0 n_req=19264 n_rd=19264 n_rd_L2_A=0 n_write=0 n_wr_bk=0 bw_util=0.02384
n_activity=523110 dram_eff=0.1473
bk0: 1204a 3166786i bk1: 1187a 3167213i bk2: 1196a 3167165i bk3: 1195a 3166851i bk4: 1259a 3164499i bk5: 1209a 3166343i bk6: 1200a 3165936i bk7: 1222a 3166768i bk8: 1221a 3163042i bk9: 1224a 3163370i bk10: 1213a 3164224i bk11: 1207a 3164841i bk12: 1202a 3164994i bk13: 1199a 3162926i bk14: 1162a 3164136i bk15: 1164a 3166248i 

------------------------------------------------------------------------

Row_Buffer_Locality = 0.127699
Row_Buffer_Locality_read = 0.127699
Row_Buffer_Locality_write = -nan
Bank_Level_Parallism = 2.476867
Bank_Level_Parallism_Col = 1.396893
Bank_Level_Parallism_Ready = 1.091111
write_to_read_ratio_blp_rw_average = 0.000000
GrpLevelPara = 1.306994 

BW Util details:
bwutil = 0.023844 
total_CMD = 3231731 
util_bw = 77056 
Wasted_Col = 253847 
Wasted_Row = 109396 
Idle = 2791432 

BW Util Bottlenecks: 
RCDc_limit = 337153 
RCDWRc_limit = 0 
WTRc_limit = 0 
RTWc_limit = 0 
CCDLc_limit = 8305 
rwq = 0 
CCDLc_limit_alone = 8305 
WTRc_limit_alone = 0 
RTWc_limit_alone = 0 

Commands details: 
total_CMD = 3231731 
n_nop = 3180601 
Read = 19264 
Write = 0 
L2_Alloc = 0 
L2_WB = 0 
n_act = 16817 
n_pre = 16801 
n_ref = 0 
n_req = 19264 
total_req = 19264 

Dual Bus Interface Util: 
issued_total_row = 33618 
issued_total_col = 19264 
Row_Bus_Util =  0.010402 
CoL_Bus_Util = 0.005961 
Either_Row_CoL_Bus_Util = 0.015821 
Issued_on_Two_Bus_Simul_Util = 0.000542 
issued_two_Eff = 0.034266 
queue_avg = 0.199143 


dram_util_bins: 0 0 0 0 0 0 0 0 0 0
dram_eff_bins: 0 0 0 0 0 0 0 0 0 0
mrqq: max=64 avg=0.199143
Memory Partition 6: 
Cache L2_bank_012:
MSHR contents

Cache L2_bank_013:
MSHR contents

In Dram Latency Queue (total = 0): 
DRAM[6]: 16 bks, busW=2 BL=16 CL=24, tRRD=12 tCCD=4, tRCD=24 tRAS=55 tRP=24 tRC=78
n_cmd=3231731 n_nop=3173341 n_act=19606 n_pre=19590 n_ref_event=0 n_req=22459 n_rd=22453 n_rd_L2_A=0 n_write=0 n_wr_bk=24 bw_util=0.02782
n_activity=523108 dram_eff=0.1719
bk0: 1407a 3149070i bk1: 1396a 3147985i bk2: 1463a 3142371i bk3: 1349a 3151219i bk4: 1479a 3141252i bk5: 1431a 3145365i bk6: 1402a 3149166i bk7: 1374a 3149494i bk8: 1466a 3139357i bk9: 1411a 3143199i bk10: 1422a 3143289i bk11: 1340a 3151341i bk12: 1454a 3139367i bk13: 1339a 3146602i bk14: 1382a 3146600i bk15: 1338a 3149526i 

------------------------------------------------------------------------

Row_Buffer_Locality = 0.127566
Row_Buffer_Locality_read = 0.127600
Row_Buffer_Locality_write = 0.000000
Bank_Level_Parallism = 3.154813
Bank_Level_Parallism_Col = 1.512842
Bank_Level_Parallism_Ready = 1.078195
write_to_read_ratio_blp_rw_average = 0.001046
GrpLevelPara = 1.401976 

BW Util details:
bwutil = 0.027820 
total_CMD = 3231731 
util_bw = 89908 
Wasted_Col = 261661 
Wasted_Row = 94292 
Idle = 2785870 

BW Util Bottlenecks: 
RCDc_limit = 372460 
RCDWRc_limit = 41 
WTRc_limit = 610 
RTWc_limit = 527 
CCDLc_limit = 12380 
rwq = 0 
CCDLc_limit_alone = 12316 
WTRc_limit_alone = 588 
RTWc_limit_alone = 485 

Commands details: 
total_CMD = 3231731 
n_nop = 3173341 
Read = 22453 
Write = 0 
L2_Alloc = 0 
L2_WB = 24 
[...]
bk0: 4272a 8994342i bk1: 4280a 8989419i bk2: 4460a 8972551i bk3: 4195a 8994216i bk4: 4504a 8968259i bk5: 4428a 8974384i bk6: 4274a 8989994i bk7: 4252a 8987869i bk8: 4445a 8962295i bk9: 4401a 8965464i bk10: 4308a 8975080i bk11: 4175a 8990650i bk12: 4456a 8961460i bk13: 4185a 8981362i bk14: 4228a 8980322i bk15: 4088a 8991887i 

------------------------------------------------------------------------

Row_Buffer_Locality = 0.135347
Row_Buffer_Locality_read = 0.135371
Row_Buffer_Locality_write = 0.050000
Bank_Level_Parallism = 3.410562
Bank_Level_Parallism_Col = 1.544102
Bank_Level_Parallism_Ready = 1.080899
write_to_read_ratio_blp_rw_average = 0.003076
GrpLevelPara = 1.426553 

BW Util details:
bwutil = 0.029831 
total_CMD = 9254319 
util_bw = 276068 
Wasted_Col = 775841 
Wasted_Row = 266042 
Idle = 7936368 

BW Util Bottlenecks: 
RCDc_limit = 1118630 
RCDWRc_limit = 130 
WTRc_limit = 1659 
RTWc_limit = 5089 
CCDLc_limit = 39628 
rwq = 0 
CCDLc_limit_alone = 39199 
WTRc_limit_alone = 1573 
RTWc_limit_alone = 4746 

Commands details: 
total_CMD = 9254319 
n_nop = 9077001 
Read = 68951 
Write = 0 
L2_Alloc = 0 
L2_WB = 66 
n_act = 59648 
n_pre = 59632 
n_ref = 0 
n_req = 68971 
total_req = 69017 

Dual Bus Interface Util: 
issued_total_row = 119280 
issued_total_col = 69017 
Row_Bus_Util =  0.012889 
CoL_Bus_Util = 0.007458 
Either_Row_CoL_Bus_Util = 0.019161 
Issued_on_Two_Bus_Simul_Util = 0.001186 
issued_two_Eff = 0.061917 
queue_avg = 0.439257 


dram_util_bins: 0 0 0 0 0 0 0 0 0 0
dram_eff_bins: 0 0 0 0 0 0 0 0 0 0
mrqq: max=64 avg=0.439257
Memory Partition 7: 
Cache L2_bank_014:
MSHR contents

Cache L2_bank_015:
MSHR contents

In Dram Latency Queue (total = 0): 
DRAM[7]: 16 bks, busW=2 BL=16 CL=24, tRRD=12 tCCD=4, tRCD=24 tRAS=55 tRP=24 tRC=78
n_cmd=9254319 n_nop=9095150 n_act=52478 n_pre=52462 n_ref_event=0 n_req=60073 n_rd=60055 n_rd_L2_A=0 n_write=0 n_wr_bk=61 bw_util=0.02598
n_activity=1507373 dram_eff=0.1595
bk0: 3808a 9044673i bk1: 3650a 9052493i bk2: 3988a 9035343i bk3: 3720a 9050594i bk4: 3877a 9038506i bk5: 3765a 9044219i bk6: 3824a 9041078i bk7: 3798a 9042677i bk8: 3843a 9031881i bk9: 3647a 9042301i bk10: 3828a 9036887i bk11: 3687a 9047118i bk12: 3696a 9041019i bk13: 3657a 9043376i bk14: 3633a 9046686i bk15: 3634a 9043770i 

------------------------------------------------------------------------

Row_Buffer_Locality = 0.126613
Row_Buffer_Locality_read = 0.126651
Row_Buffer_Locality_write = 0.000000
Bank_Level_Parallism = 2.672078
Bank_Level_Parallism_Col = 1.428489
Bank_Level_Parallism_Ready = 1.082212
write_to_read_ratio_blp_rw_average = 0.001246
GrpLevelPara = 1.335087 

BW Util details:
bwutil = 0.025984 
total_CMD = 9254319 
util_bw = 240464 
Wasted_Col = 762771 
Wasted_Row = 295453 
Idle = 7955631 

BW Util Bottlenecks: 
RCDc_limit = 1038141 
RCDWRc_limit = 177 
WTRc_limit = 778 
RTWc_limit = 1453 
CCDLc_limit = 27797 
rwq = 0 
CCDLc_limit_alone = 27693 
WTRc_limit_alone = 758 
RTWc_limit_alone = 1369 

Commands details: 
total_CMD = 9254319 
n_nop = 9095150 
Read = 60055 
Write = 0 
L2_Alloc = 0 
L2_WB = 61 
n_act = 52478 
n_pre = 52462 
n_ref = 0 
n_req = 60073 
total_req = 60116 

Dual Bus Interface Util: 
issued_total_row = 104940 
issued_total_col = 60116 
Row_Bus_Util =  0.011340 
CoL_Bus_Util = 0.006496 
Either_Row_CoL_Bus_Util = 0.017199 
Issued_on_Two_Bus_Simul_Util = 0.000636 
issued_two_Eff = 0.036986 
queue_avg = 0.240537 


dram_util_bins: 0 0 0 0 0 0 0 0 0 0
dram_eff_bins: 0 0 0 0 0 0 0 0 0 0
mrqq: max=64 avg=0.240537
Memory Partition 8: 
Cache L2_bank_016:
MSHR contents

Cache L2_bank_017:
MSHR contents

In Dram Latency Queue (total = 0): 
DRAM[8]: 16 bks, busW=2 BL=16 CL=24, tRRD=12 tCCD=4, tRCD=24 tRAS=55 tRP=24 tRC=78
n_cmd=9254319 n_nop=9086102 n_act=55826 n_pre=55810 n_ref_event=0 n_req=64271 n_rd=64254 n_rd_L2_A=0 n_write=0 n_wr_bk=62 bw_util=0.0278
n_activity=1498621 dram_eff=0.1717
bk0: 4180a 9014749i bk1: 4018a 9023012i bk2: 4032a 9023856i bk3: 3943a 9027727i bk4: 3981a 9023705i bk5: 3942a 9025793i bk6: 4273a 9007382i bk7: 3925a 9025389i bk8: 4131a 9003525i bk9: 4026a 9014971i bk10: 4207a 9004314i bk11: 4010a 9020799i bk12: 4134a 9002373i bk13: 3837a 9023824i bk14: 3919a 9014643i bk15: 3696a 9031542i 

------------------------------------------------------------------------

Row_Buffer_Locality = 0.131599
Row_Buffer_Locality_read = 0.131618
Row_Buffer_Locality_write = 0.058824
Bank_Level_Parallism = 2.970933
Bank_Level_Parallism_Col = 1.482472
Bank_Level_Parallism_Ready = 1.087357
write_to_read_ratio_blp_rw_average = 0.002213
GrpLevelPara = 1.375127 

BW Util details:
bwutil = 0.027799 
total_CMD = 9254319 
util_bw = 257264 
Wasted_Col = 770745 
Wasted_Row = 275231 
Idle = 7951079 

BW Util Bottlenecks: 
RCDc_limit = 1078196 
RCDWRc_limit = 132 
WTRc_limit = 1452 
RTWc_limit = 3393 
CCDLc_limit = 33408 
rwq = 0 
CCDLc_limit_alone = 33079 
WTRc_limit_alone = 1372 
RTWc_limit_alone = 3144 

Commands details: 
total_CMD = 9254319 
n_nop = 9086102 
Read = 64254 
Write = 0 
L2_Alloc = 0 
L2_WB = 62 
n_act = 55826 
n_pre = 55810 
n_ref = 0 
n_req = 64271 
total_req = 64316 

Dual Bus Interface Util: 
issued_total_row = 111636 
issued_total_col = 64316 
Row_Bus_Util =  0.012063 
CoL_Bus_Util = 0.006950 
Either_Row_CoL_Bus_Util = 0.018177 
Issued_on_Two_Bus_Simul_Util = 0.000836 
issued_two_Eff = 0.045982 
queue_avg = 0.336327 


dram_util_bins: 0 0 0 0 0 0 0 0 0 0
dram_eff_bins: 0 0 0 0 0 0 0 0 0 0
mrqq: max=64 avg=0.336327
Memory Partition 9: 
Cache L2_bank_018:
MSHR contents

Cache L2_bank_019:
MSHR contents

In Dram Latency Queue (total = 0): 
DRAM[9]: 16 bks, busW=2 BL=16 CL=24, tRRD=12 tCCD=4, tRCD=24 tRAS=55 tRP=24 tRC=78
n_cmd=9254319 n_nop=9084908 n_act=56874 n_pre=56858 n_ref_event=0 n_req=65563 n_rd=65535 n_rd_L2_A=0 n_write=0 n_wr_bk=100 bw_util=0.02837
n_activity=1490343 dram_eff=0.1762
bk0: 4016a 9011369i bk1: 4330a 8988680i bk2: 3916a 9019117i bk3: 4131a 9006801i bk4: 3993a 9008878i bk5: 4398a 8980260i bk6: 3972a 9007299i bk7: 4329a 8978924i bk8: 3939a 9004181i bk9: 4375a 8972444i bk10: 3993a 9007130i bk11: 4346a 8980540i bk12: 3794a 9008923i bk13: 4077a 8992869i bk14: 3859a 9006144i bk15: 4067a 8997352i 

------------------------------------------------------------------------

Row_Buffer_Locality = 0.132682
Row_Buffer_Locality_read = 0.132708
Row_Buffer_Locality_write = 0.071429
Bank_Level_Parallism = 3.257480
Bank_Level_Parallism_Col = 1.516459
Bank_Level_Parallism_Ready = 1.080058
write_to_read_ratio_blp_rw_average = 0.002258
GrpLevelPara = 1.407247 

BW Util details:
bwutil = 0.028369 
total_CMD = 9254319 
util_bw = 262540 
Wasted_Col = 758769 
Wasted_Row = 267522 
Idle = 7965488 

BW Util Bottlenecks: 
RCDc_limit = 1078333 
RCDWRc_limit = 187 
WTRc_limit = 2189 
RTWc_limit = 3574 
CCDLc_limit = 35947 
rwq = 0 
CCDLc_limit_alone = 35655 
WTRc_limit_alone = 2119 
RTWc_limit_alone = 3352 

Commands details: 
total_CMD = 9254319 
n_nop = 9084908 
Read = 65535 
Write = 0 
L2_Alloc = 0 
L2_WB = 100 
n_act = 56874 
n_pre = 56858 
n_ref = 0 
n_req = 65563 
total_req = 65635 

Dual Bus Interface Util: 
issued_total_row = 113732 
issued_total_col = 65635 
Row_Bus_Util =  0.012290 
CoL_Bus_Util = 0.007092 
Either_Row_CoL_Bus_Util = 0.018306 
Issued_on_Two_Bus_Simul_Util = 0.001076 
issued_two_Eff = 0.058768 
queue_avg = 0.395183 


dram_util_bins: 0 0 0 0 0 0 0 0 0 0
dram_eff_bins: 0 0 0 0 0 0 0 0 0 0
mrqq: max=64 avg=0.395183
Memory Partition 10: 
Cache L2_bank_020:
MSHR contents

Cache L2_bank_021:
MSHR contents

In Dram Latency Queue (total = 0): 
DRAM[10]: 16 bks, busW=2 BL=16 CL=24, tRRD=12 tCCD=4, tRCD=24 tRAS=55 tRP=24 tRC=78
n_cmd=9254319 n_nop=9090932 n_act=53938 n_pre=53922 n_ref_event=0 n_req=61882 n_rd=61860 n_rd_L2_A=0 n_write=0 n_wr_bk=75 bw_util=0.02677
n_activity=1503032 dram_eff=0.1648
bk0: 3853a 9036380i bk1: 3888a 9036099i bk2: 3832a 9039871i bk3: 3858a 9044308i bk4: 3982a 9030358i bk5: 3884a 9038186i bk6: 3899a 9031640i bk7: 3938a 9029404i bk8: 3924a 9023355i bk9: 3840a 9026014i bk10: 4063a 9021513i bk11: 3895a 9030606i bk12: 3944a 9021936i bk13: 3719a 9034561i bk14: 3688a 9040898i bk15: 3653a 9041325i 

------------------------------------------------------------------------

Row_Buffer_Locality = 0.128567
Row_Buffer_Locality_read = 0.128581
Row_Buffer_Locality_write = 0.090909
Bank_Level_Parallism = 2.781892
Bank_Level_Parallism_Col = 1.444723
Bank_Level_Parallism_Ready = 1.080520
write_to_read_ratio_blp_rw_average = 0.000797
GrpLevelPara = 1.348671 

BW Util details:
bwutil = 0.026770 
total_CMD = 9254319 
util_bw = 247740 
Wasted_Col = 768924 
Wasted_Row = 287323 
Idle = 7950332 

BW Util Bottlenecks: 
RCDc_limit = 1056848 
RCDWRc_limit = 213 
WTRc_limit = 1372 
RTWc_limit = 915 
CCDLc_limit = 29779 
rwq = 0 
CCDLc_limit_alone = 29688 
WTRc_limit_alone = 1326 
RTWc_limit_alone = 870 

Commands details: 
total_CMD = 9254319 
n_nop = 9090932 
Read = 61860 
Write = 0 
L2_Alloc = 0 
L2_WB = 75 
n_act = 53938 
n_pre = 53922 
n_ref = 0 
n_req = 61882 
total_req = 61935 

Dual Bus Interface Util: 
issued_total_row = 107860 
issued_total_col = 61935 
Row_Bus_Util =  0.011655 
CoL_Bus_Util = 0.006693 
Either_Row_CoL_Bus_Util = 0.017655 
Issued_on_Two_Bus_Simul_Util = 0.000692 
issued_two_Eff = 0.039220 
queue_avg = 0.271102 


dram_util_bins: 0 0 0 0 0 0 0 0 0 0
dram_eff_bins: 0 0 0 0 0 0 0 0 0 0
mrqq: max=64 avg=0.271102
Memory Partition 11: 
Cache L2_bank_022:
MSHR contents

Cache L2_bank_023:
MSHR contents

In Dram Latency Queue (total = 0): 
DRAM[11]: 16 bks, busW=2 BL=16 CL=24, tRRD=12 tCCD=4, tRCD=24 tRAS=55 tRP=24 tRC=78
n_cmd=9254319 n_nop=9096485 n_act=51766 n_pre=51750 n_ref_event=0 n_req=59555 n_rd=59542 n_rd_L2_A=0 n_write=0 n_wr_bk=43 bw_util=0.02575
n_activity=1523562 dram_eff=0.1564
bk0: 3854a 9042248i bk1: 3735a 9049539i bk2: 3795a 9045046i bk3: 3645a 9054689i bk4: 3898a 9045636i bk5: 3588a 9059490i bk6: 3975a 9029758i bk7: 3582a 9052558i bk8: 3872a 9032670i bk9: 3651a 9044406i bk10: 3822a 9035340i bk11: 3663a 9046415i bk12: 3724a 9040717i bk13: 3482a 9054809i bk14: 3773a 9040017i bk15: 3483a 9058588i 

------------------------------------------------------------------------

Row_Buffer_Locality = 0.130938
Row_Buffer_Locality_read = 0.130966
Row_Buffer_Locality_write = 0.000000
Bank_Level_Parallism = 2.614193
Bank_Level_Parallism_Col = 1.416433
Bank_Level_Parallism_Ready = 1.088960
write_to_read_ratio_blp_rw_average = 0.000486
GrpLevelPara = 1.325073 

BW Util details:
bwutil = 0.025754 
total_CMD = 9254319 
util_bw = 238340 
Wasted_Col = 764112 
Wasted_Row = 306124 
Idle = 7945743 

BW Util Bottlenecks: 
RCDc_limit = 1027812 
RCDWRc_limit = 144 
WTRc_limit = 584 
RTWc_limit = 465 
CCDLc_limit = 26941 
rwq = 0 
CCDLc_limit_alone = 26889 
WTRc_limit_alone = 558 
RTWc_limit_alone = 439 

Commands details: 
total_CMD = 9254319 
n_nop = 9096485 
Read = 59542 
Write = 0 
L2_Alloc = 0 
L2_WB = 43 
n_act = 51766 
n_pre = 51750 
n_ref = 0 
n_req = 59555 
total_req = 59585 

Dual Bus Interface Util: 
issued_total_row = 103516 
issued_total_col = 59585 
Row_Bus_Util =  0.011186 
CoL_Bus_Util = 0.006439 
Either_Row_CoL_Bus_Util = 0.017055 
Issued_on_Two_Bus_Simul_Util = 0.000569 
issued_two_Eff = 0.033371 
queue_avg = 0.254668 


dram_util_bins: 0 0 0 0 0 0 0 0 0 0
dram_eff_bins: 0 0 0 0 0 0 0 0 0 0
mrqq: max=64 avg=0.254668

========= L2 cache stats =========
L2_cache_bank[0]: Access = 284633, Miss = 30437, Miss_rate = 0.107, Pending_hits = 58, Reservation_fails = 0
L2_cache_bank[1]: Access = 287583, Miss = 29662, Miss_rate = 0.103, Pending_hits = 2, Reservation_fails = 788
L2_cache_bank[2]: Access = 292672, Miss = 31599, Miss_rate = 0.108, Pending_hits = 8, Reservation_fails = 0
L2_cache_bank[3]: Access = 285639, Miss = 31897, Miss_rate = 0.112, Pending_hits = 4, Reservation_fails = 0
L2_cache_bank[4]: Access = 285351, Miss = 31079, Miss_rate = 0.109, Pending_hits = 11, Reservation_fails = 0
L2_cache_bank[5]: Access = 287876, Miss = 30841, Miss_rate = 0.107, Pending_hits = 1, Reservation_fails = 0
L2_cache_bank[6]: Access = 288727, Miss = 30653, Miss_rate = 0.106, Pending_hits = 0, Reservation_fails = 0
L2_cache_bank[7]: Access = 292210, Miss = 30896, Miss_rate = 0.106, Pending_hits = 5, Reservation_fails = 0
L2_cache_bank[8]: Access = 290655, Miss = 32796, Miss_rate = 0.113, Pending_hits = 52, Reservation_fails = 0
L2_cache_bank[9]: Access = 293180, Miss = 31678, Miss_rate = 0.108, Pending_hits = 3, Reservation_fails = 0
L2_cache_bank[10]: Access = 286111, Miss = 30141, Miss_rate = 0.105, Pending_hits = 0, Reservation_fails = 0
L2_cache_bank[11]: Access = 283080, Miss = 29607, Miss_rate = 0.105, Pending_hits = 1, Reservation_fails = 0
L2_cache_bank[12]: Access = 282648, Miss = 34949, Miss_rate = 0.124, Pending_hits = 8, Reservation_fails = 86
L2_cache_bank[13]: Access = 289891, Miss = 34008, Miss_rate = 0.117, Pending_hits = 16, Reservation_fails = 236
L2_cache_bank[14]: Access = 289553, Miss = 30503, Miss_rate = 0.105, Pending_hits = 6, Reservation_fails = 0
L2_cache_bank[15]: Access = 284993, Miss = 29559, Miss_rate = 0.104, Pending_hits = 1, Reservation_fails = 0
L2_cache_bank[16]: Access = 288584, Miss = 32860, Miss_rate = 0.114, Pending_hits = 57, Reservation_fails = 0
L2_cache_bank[17]: Access = 289536, Miss = 31397, Miss_rate = 0.108, Pending_hits = 2, Reservation_fails = 0
L2_cache_bank[18]: Access = 286102, Miss = 31486, Miss_rate = 0.110, Pending_hits = 6, Reservation_fails = 0
L2_cache_bank[19]: Access = 288463, Miss = 34060, Miss_rate = 0.118, Pending_hits = 14, Reservation_fails = 0
L2_cache_bank[20]: Access = 287855, Miss = 31185, Miss_rate = 0.108, Pending_hits = 1, Reservation_fails = 1
L2_cache_bank[21]: Access = 285337, Miss = 30677, Miss_rate = 0.108, Pending_hits = 8, Reservation_fails = 32
L2_cache_bank[22]: Access = 285889, Miss = 30713, Miss_rate = 0.107, Pending_hits = 1, Reservation_fails = 0
L2_cache_bank[23]: Access = 282707, Miss = 28829, Miss_rate = 0.102, Pending_hits = 0, Reservation_fails = 0
L2_total_cache_accesses = 6899275
L2_total_cache_misses = 751512
L2_total_cache_miss_rate = 0.1089
L2_total_cache_pending_hits = 265
L2_total_cache_reservation_fails = 1143
L2_total_cache_breakdown:
	L2_cache_stats_breakdown[GLOBAL_ACC_R][HIT] = 6128902
	L2_cache_stats_breakdown[GLOBAL_ACC_R][HIT_RESERVED] = 264
	L2_cache_stats_breakdown[GLOBAL_ACC_R][MISS] = 272198
	L2_cache_stats_breakdown[GLOBAL_ACC_R][RESERVATION_FAIL] = 1143
	L2_cache_stats_breakdown[GLOBAL_ACC_R][SECTOR_MISS] = 479264
	L2_cache_stats_breakdown[GLOBAL_ACC_R][MSHR_HIT] = 264
	L2_cache_stats_breakdown[LOCAL_ACC_R][HIT] = 0
	L2_cache_stats_breakdown[LOCAL_ACC_R][HIT_RESERVED] = 0
	L2_cache_stats_breakdown[LOCAL_ACC_R][MISS] = 0
	L2_cache_stats_breakdown[LOCAL_ACC_R][RESERVATION_FAIL] = 0
	L2_cache_stats_breakdown[LOCAL_ACC_R][SECTOR_MISS] = 0
	L2_cache_stats_breakdown[LOCAL_ACC_R][MSHR_HIT] = 0
	L2_cache_stats_breakdown[CONST_ACC_R][HIT] = 0
	L2_cache_stats_breakdown[CONST_ACC_R][HIT_RESERVED] = 0
	L2_cache_stats_breakdown[CONST_ACC_R][MISS] = 0
	L2_cache_stats_breakdown[CONST_ACC_R][RESERVATION_FAIL] = 0
	L2_cache_stats_breakdown[CONST_ACC_R][SECTOR_MISS] = 0
	L2_cache_stats_breakdown[CONST_ACC_R][MSHR_HIT] = 0
	L2_cache_stats_breakdown[TEXTURE_ACC_R][HIT] = 0
	L2_cache_stats_breakdown[TEXTURE_ACC_R][HIT_RESERVED] = 0
	L2_cache_stats_breakdown[TEXTURE_ACC_R][MISS] = 0
	L2_cache_stats_breakdown[TEXTURE_ACC_R][RESERVATION_FAIL] = 0
	L2_cache_stats_breakdown[TEXTURE_ACC_R][SECTOR_MISS] = 0
	L2_cache_stats_breakdown[TEXTURE_ACC_R][MSHR_HIT] = 0
	L2_cache_stats_breakdown[GLOBAL_ACC_W][HIT] = 18596
	L2_cache_stats_breakdown[GLOBAL_ACC_W][HIT_RESERVED] = 1
	L2_cache_stats_breakdown[GLOBAL_ACC_W][MISS] = 12
	L2_cache_stats_breakdown[GLOBAL_ACC_W][RESERVATION_FAIL] = 0
	L2_cache_stats_breakdown[GLOBAL_ACC_W][SECTOR_MISS] = 38
	L2_cache_stats_breakdown[GLOBAL_ACC_W][MSHR_HIT] = 0
	L2_cache_stats_breakdown[LOCAL_ACC_W][HIT] = 0
	L2_cache_stats_breakdown[LOCAL_ACC_W][HIT_RESERVED] = 0
	L2_cache_stats_breakdown[LOCAL_ACC_W][MISS] = 0
	L2_cache_stats_breakdown[LOCAL_ACC_W][RESERVATION_FAIL] = 0
	L2_cache_stats_breakdown[LOCAL_ACC_W][SECTOR_MISS] = 0
	L2_cache_stats_breakdown[LOCAL_ACC_W][MSHR_HIT] = 0
	L2_cache_stats_breakdown[L1_WRBK_ACC][HIT] = 0
	L2_cache_stats_breakdown[L1_WRBK_ACC][HIT_RESERVED] = 0
	L2_cache_stats_breakdown[L1_WRBK_ACC][MISS] = 0
	L2_cache_stats_breakdown[L1_WRBK_ACC][RESERVATION_FAIL] = 0
	L2_cache_stats_breakdown[L1_WRBK_ACC][SECTOR_MISS] = 0
	L2_cache_stats_breakdown[L1_WRBK_ACC][MSHR_HIT] = 0
	L2_cache_stats_breakdown[L2_WRBK_ACC][HIT] = 0
	L2_cache_stats_breakdown[L2_WRBK_ACC][HIT_RESERVED] = 0
	L2_cache_stats_breakdown[L2_WRBK_ACC][MISS] = 0
	L2_cache_stats_breakdown[L2_WRBK_ACC][RESERVATION_FAIL] = 0
	L2_cache_stats_breakdown[L2_WRBK_ACC][SECTOR_MISS] = 0
	L2_cache_stats_breakdown[L2_WRBK_ACC][MSHR_HIT] = 0
	L2_cache_stats_breakdown[INST_ACC_R][HIT] = 0
	L2_cache_stats_breakdown[INST_ACC_R][HIT_RESERVED] = 0
	L2_cache_stats_breakdown[INST_ACC_R][MISS] = 0
	L2_cache_stats_breakdown[INST_ACC_R][RESERVATION_FAIL] = 0
	L2_cache_stats_breakdown[INST_ACC_R][SECTOR_MISS] = 0
	L2_cache_stats_breakdown[INST_ACC_R][MSHR_HIT] = 0
	L2_cache_stats_breakdown[L1_WR_ALLOC_R][HIT] = 0
	L2_cache_stats_breakdown[L1_WR_ALLOC_R][HIT_RESERVED] = 0
	L2_cache_stats_breakdown[L1_WR_ALLOC_R][MISS] = 0
	L2_cache_stats_breakdown[L1_WR_ALLOC_R][RESERVATION_FAIL] = 0
	L2_cache_stats_breakdown[L1_WR_ALLOC_R][SECTOR_MISS] = 0
	L2_cache_stats_breakdown[L1_WR_ALLOC_R][MSHR_HIT] = 0
	L2_cache_stats_breakdown[L2_WR_ALLOC_R][HIT] = 0
	L2_cache_stats_breakdown[L2_WR_ALLOC_R][HIT_RESERVED] = 0
	L2_cache_stats_breakdown[L2_WR_ALLOC_R][MISS] = 0
	L2_cache_stats_breakdown[L2_WR_ALLOC_R][RESERVATION_FAIL] = 0
	L2_cache_stats_breakdown[L2_WR_ALLOC_R][SECTOR_MISS] = 0
	L2_cache_stats_breakdown[L2_WR_ALLOC_R][MSHR_HIT] = 0
	L2_cache_stats_breakdown[GLOBAL_ACC_R][TOTAL_ACCESS] = 6880628
	L2_cache_stats_breakdown[GLOBAL_ACC_W][TOTAL_ACCESS] = 18647
L2_total_cache_reservation_fail_breakdown:
	L2_cache_stats_fail_breakdown[GLOBAL_ACC_R][MSHR_ENRTY_FAIL] = 933
	L2_cache_stats_fail_breakdown[GLOBAL_ACC_R][MSHR_MERGE_ENRTY_FAIL] = 210
L2_cache_data_port_util = 0.071
L2_cache_fill_port_util = 0.009

icnt_total_pkts_mem_to_simt=6899275
icnt_total_pkts_simt_to_mem=6899275
LD_mem_lat_dist  0 0 0 0 0 0 0 0 0 0 0 0 0 0 0 0 0 0 0 0 0 0 0 0 0 0 0
ST_mem_lat_dist  0 0 0 0 0 0 0 0 0 0 0 0 0 0 0 0 0 0 0 0 0 0 0 0 0 0 0
----------------------------Interconnect-DETAILS--------------------------------
Req_Network_injected_packets_num = 6899275
Req_Network_cycles = 3608674
Req_Network_injected_packets_per_cycle =       1.9119 
Req_Network_conflicts_per_cycle =       1.4521
Req_Network_conflicts_per_cycle_util =       8.4324
Req_Bank_Level_Parallism =      11.1019
Req_Network_in_buffer_full_per_cycle =       0.0000
Req_Network_in_buffer_avg_util =      10.2711
Req_Network_out_buffer_full_per_cycle =       0.0000
Req_Network_out_buffer_avg_util =       0.1243

Reply_Network_injected_packets_num = 6899275
Reply_Network_cycles = 3608674
Reply_Network_injected_packets_per_cycle =        1.9119
Reply_Network_conflicts_per_cycle =        0.8483
Reply_Network_conflicts_per_cycle_util =       4.9305
Reply_Bank_Level_Parallism =      11.1115
Reply_Network_in_buffer_full_per_cycle =       0.0000
Reply_Network_in_buffer_avg_util =       0.2230
Reply_Network_out_buffer_full_per_cycle =       0.0000
Reply_Network_out_buffer_avg_util =       0.0637
----------------------------END-of-Interconnect-DETAILS-------------------------


gpgpu_simulation_time = 0 days, 2 hrs, 31 min, 25 sec (9085 sec)
gpgpu_simulation_rate = 5779 (inst/sec)
gpgpu_simulation_rate = 397 (cycle/sec)
gpgpu_silicon_slowdown = 3438287x
GPGPU-Sim: synchronize waiting for inactive GPU simulation
GPGPU-Sim API: Stream Manager State
GPGPU-Sim: detected inactive GPU simulation thread
	iterations = 3.
	runtime [cuda_base] = 9082572.504000 ms.
Verifying...
	runtime [serial] = 26.056000 ms.
Correct
GPGPU-Sim: *** exit detected ***
