

        *** GPGPU-Sim Simulator Version 4.2.0  [build gpgpu-sim_git-commit-5e9d31b8132651796656877ecb58fde27177ba7a_modified_315.0] ***


GPGPU-Sim PTX: simulation mode 0 (can change with PTX_SIM_MODE_FUNC environment variable:
               1=functional simulation only, 0=detailed performance simulator)
GPGPU-Sim PTX: overriding embedded ptx with ptx file (PTX_SIM_USE_PTX_FILE is set)
GPGPU-Sim: Configuration options:

-save_embedded_ptx                      0 # saves ptx files embedded in binary as <n>.ptx
-keep                                   0 # keep intermediate files created by GPGPU-Sim when interfacing with external programs
-gpgpu_ptx_save_converted_ptxplus                    0 # Saved converted ptxplus to a file
-gpgpu_occupancy_sm_number                   75 # The SM number to pass to ptxas when getting register usage for computing GPU occupancy. This parameter is required in the config.
-ptx_opcode_latency_int           4,4,4,4,21 # Opcode latencies for integers <ADD,MAX,MUL,MAD,DIV,SHFL>Default 1,1,19,25,145,32
-ptx_opcode_latency_fp           4,4,4,4,39 # Opcode latencies for single precision floating points <ADD,MAX,MUL,MAD,DIV>Default 1,1,1,1,30
-ptx_opcode_latency_dp      64,64,64,64,330 # Opcode latencies for double precision floating points <ADD,MAX,MUL,MAD,DIV>Default 8,8,8,8,335
-ptx_opcode_latency_sfu                   21 # Opcode latencies for SFU instructionsDefault 8
-ptx_opcode_latency_tesnor                   64 # Opcode latencies for Tensor instructionsDefault 64
-ptx_opcode_initiation_int            2,2,2,2,2 # Opcode initiation intervals for integers <ADD,MAX,MUL,MAD,DIV,SHFL>Default 1,1,4,4,32,4
-ptx_opcode_initiation_fp            2,2,2,2,4 # Opcode initiation intervals for single precision floating points <ADD,MAX,MUL,MAD,DIV>Default 1,1,1,1,5
-ptx_opcode_initiation_dp      64,64,64,64,130 # Opcode initiation intervals for double precision floating points <ADD,MAX,MUL,MAD,DIV>Default 8,8,8,8,130
-ptx_opcode_initiation_sfu                    8 # Opcode initiation intervals for sfu instructionsDefault 8
-ptx_opcode_initiation_tensor                   64 # Opcode initiation intervals for tensor instructionsDefault 64
-cdp_latency         7200,8000,100,12000,1600 # CDP API latency <cudaStreamCreateWithFlags, cudaGetParameterBufferV2_init_perWarp, cudaGetParameterBufferV2_perKernel, cudaLaunchDeviceV2_init_perWarp, cudaLaunchDevicV2_perKernel>Default 7200,8000,100,12000,1600
-network_mode                           2 # Interconnection network mode
-inter_config_file                   mesh # Interconnection network config file
-icnt_in_buffer_limit                  512 # in_buffer_limit
-icnt_out_buffer_limit                  512 # out_buffer_limit
-icnt_subnets                           2 # subnets
-icnt_arbiter_algo                      1 # arbiter_algo
-icnt_verbose                           0 # inct_verbose
-icnt_grant_cycles                      1 # grant_cycles
-gpgpu_ptx_use_cuobjdump                    1 # Use cuobjdump to extract ptx and sass from binaries
-gpgpu_experimental_lib_support                    0 # Try to extract code from cuda libraries [Broken because of unknown cudaGetExportTable]
-checkpoint_option                      0 #  checkpointing flag (0 = no checkpoint)
-checkpoint_kernel                      1 #  checkpointing during execution of which kernel (1- 1st kernel)
-checkpoint_CTA                         0 #  checkpointing after # of CTA (< less than total CTA)
-resume_option                          0 #  resume flag (0 = no resume)
-resume_kernel                          0 #  Resume from which kernel (1= 1st kernel)
-resume_CTA                             0 #  resume from which CTA 
-checkpoint_CTA_t                       0 #  resume from which CTA 
-checkpoint_insn_Y                      0 #  resume from which CTA 
-gpgpu_ptx_convert_to_ptxplus                    0 # Convert SASS (native ISA) to ptxplus and run ptxplus
-gpgpu_ptx_force_max_capability                   75 # Force maximum compute capability
-gpgpu_ptx_inst_debug_to_file                    0 # Dump executed instructions' debug information to file
-gpgpu_ptx_inst_debug_file       inst_debug.txt # Executed instructions' debug output file
-gpgpu_ptx_inst_debug_thread_uid                    1 # Thread UID for executed instructions' debug output
-gpgpu_simd_model                       1 # 1 = post-dominator
-gpgpu_shader_core_pipeline              1024:32 # shader core pipeline config, i.e., {<nthread>:<warpsize>}
-gpgpu_tex_cache:l1  N:4:128:256,L:R:m:N:L,T:512:8,128:2 # per-shader L1 texture cache  (READ-ONLY) config  {<nsets>:<bsize>:<assoc>,<rep>:<wr>:<alloc>:<wr_alloc>,<mshr>:<N>:<merge>,<mq>:<rf>}
-gpgpu_const_cache:l1 N:128:64:8,L:R:f:N:L,S:2:64,4 # per-shader L1 constant memory cache  (READ-ONLY) config  {<nsets>:<bsize>:<assoc>,<rep>:<wr>:<alloc>:<wr_alloc>,<mshr>:<N>:<merge>,<mq>} 
-gpgpu_cache:il1     N:64:128:16,L:R:f:N:L,S:2:48,4 # shader L1 instruction cache config  {<nsets>:<bsize>:<assoc>,<rep>:<wr>:<alloc>:<wr_alloc>,<mshr>:<N>:<merge>,<mq>} 
-gpgpu_cache:dl1     S:4:128:64,L:T:m:L:L,A:256:32,16:0,32 # per-shader L1 data cache config  {<nsets>:<bsize>:<assoc>,<rep>:<wr>:<alloc>:<wr_alloc>,<mshr>:<N>:<merge>,<mq> | none}
-gpgpu_l1_cache_write_ratio                   25 # L1D write ratio
-gpgpu_l1_banks                         4 # The number of L1 cache banks
-gpgpu_l1_banks_byte_interleaving                   32 # l1 banks byte interleaving granularity
-gpgpu_l1_banks_hashing_function                    0 # l1 banks hashing function
-gpgpu_l1_latency                      32 # L1 Hit Latency
-gpgpu_smem_latency                    30 # smem Latency
-gpgpu_cache:dl1PrefL1                 none # per-shader L1 data cache config  {<nsets>:<bsize>:<assoc>,<rep>:<wr>:<alloc>:<wr_alloc>,<mshr>:<N>:<merge>,<mq> | none}
-gpgpu_cache:dl1PrefShared                 none # per-shader L1 data cache config  {<nsets>:<bsize>:<assoc>,<rep>:<wr>:<alloc>:<wr_alloc>,<mshr>:<N>:<merge>,<mq> | none}
-gpgpu_gmem_skip_L1D                    0 # global memory access skip L1D cache (implements -Xptxas -dlcm=cg, default=no skip)
-gpgpu_perfect_mem                      0 # enable perfect memory mode (no cache miss)
-n_regfile_gating_group                    4 # group of lanes that should be read/written together)
-gpgpu_clock_gated_reg_file                    0 # enable clock gated reg file for power calculations
-gpgpu_clock_gated_lanes                    0 # enable clock gated lanes for power calculations
-gpgpu_shader_registers                65536 # Number of registers per shader core. Limits number of concurrent CTAs. (default 8192)
-gpgpu_registers_per_block                65536 # Maximum number of registers per CTA. (default 8192)
-gpgpu_ignore_resources_limitation                    0 # gpgpu_ignore_resources_limitation (default 0)
-gpgpu_shader_cta                      16 # Maximum number of concurrent CTAs in shader (default 32)
-gpgpu_num_cta_barriers                   16 # Maximum number of named barriers per CTA (default 16)
-gpgpu_n_clusters                      30 # number of processing clusters
-gpgpu_n_cores_per_cluster                    1 # number of simd cores per cluster
-gpgpu_n_cluster_ejection_buffer_size                   32 # number of packets in ejection buffer
-gpgpu_n_ldst_response_buffer_size                    2 # number of response packets in ld/st unit ejection buffer
-gpgpu_shmem_per_block                49152 # Size of shared memory per thread block or CTA (default 48kB)
-gpgpu_shmem_size                   65536 # Size of shared memory per shader core (default 16kB)
-gpgpu_shmem_option                 32,64 # Option list of shared memory sizes
-gpgpu_unified_l1d_size                   96 # Size of unified data cache(L1D + shared memory) in KB
-gpgpu_adaptive_cache_config                    1 # adaptive_cache_config
-gpgpu_shmem_sizeDefault                65536 # Size of shared memory per shader core (default 16kB)
-gpgpu_shmem_size_PrefL1                16384 # Size of shared memory per shader core (default 16kB)
-gpgpu_shmem_size_PrefShared                16384 # Size of shared memory per shader core (default 16kB)
-gpgpu_shmem_num_banks                   32 # Number of banks in the shared memory in each shader core (default 16)
-gpgpu_shmem_limited_broadcast                    0 # Limit shared memory to do one broadcast per cycle (default on)
-gpgpu_shmem_warp_parts                    1 # Number of portions a warp is divided into for shared memory bank conflict check 
-gpgpu_mem_unit_ports                    1 # The number of memory transactions allowed per core cycle
-gpgpu_shmem_warp_parts                    1 # Number of portions a warp is divided into for shared memory bank conflict check 
-gpgpu_warpdistro_shader                   -1 # Specify which shader core to collect the warp size distribution from
-gpgpu_warp_issue_shader                    0 # Specify which shader core to collect the warp issue distribution from
-gpgpu_local_mem_map                    1 # Mapping from local memory space address to simulated GPU physical address space (default = enabled)
-gpgpu_num_reg_banks                    8 # Number of register banks (default = 8)
-gpgpu_reg_bank_use_warp_id                    0 # Use warp ID in mapping registers to banks (default = off)
-gpgpu_sub_core_model                    1 # Sub Core Volta/Pascal model (default = off)
-gpgpu_enable_specialized_operand_collector                    0 # enable_specialized_operand_collector
-gpgpu_operand_collector_num_units_sp                    4 # number of collector units (default = 4)
-gpgpu_operand_collector_num_units_dp                    0 # number of collector units (default = 0)
-gpgpu_operand_collector_num_units_sfu                    4 # number of collector units (default = 4)
-gpgpu_operand_collector_num_units_int                    0 # number of collector units (default = 0)
-gpgpu_operand_collector_num_units_tensor_core                    4 # number of collector units (default = 4)
-gpgpu_operand_collector_num_units_mem                    2 # number of collector units (default = 2)
-gpgpu_operand_collector_num_units_gen                    8 # number of collector units (default = 0)
-gpgpu_operand_collector_num_in_ports_sp                    1 # number of collector unit in ports (default = 1)
-gpgpu_operand_collector_num_in_ports_dp                    0 # number of collector unit in ports (default = 0)
-gpgpu_operand_collector_num_in_ports_sfu                    1 # number of collector unit in ports (default = 1)
-gpgpu_operand_collector_num_in_ports_int                    0 # number of collector unit in ports (default = 0)
-gpgpu_operand_collector_num_in_ports_tensor_core                    1 # number of collector unit in ports (default = 1)
-gpgpu_operand_collector_num_in_ports_mem                    1 # number of collector unit in ports (default = 1)
-gpgpu_operand_collector_num_in_ports_gen                    8 # number of collector unit in ports (default = 0)
-gpgpu_operand_collector_num_out_ports_sp                    1 # number of collector unit in ports (default = 1)
-gpgpu_operand_collector_num_out_ports_dp                    0 # number of collector unit in ports (default = 0)
-gpgpu_operand_collector_num_out_ports_sfu                    1 # number of collector unit in ports (default = 1)
-gpgpu_operand_collector_num_out_ports_int                    0 # number of collector unit in ports (default = 0)
-gpgpu_operand_collector_num_out_ports_tensor_core                    1 # number of collector unit in ports (default = 1)
-gpgpu_operand_collector_num_out_ports_mem                    1 # number of collector unit in ports (default = 1)
-gpgpu_operand_collector_num_out_ports_gen                    8 # number of collector unit in ports (default = 0)
-gpgpu_coalesce_arch                   75 # Coalescing arch (GT200 = 13, Fermi = 20)
-gpgpu_num_sched_per_core                    4 # Number of warp schedulers per core
-gpgpu_max_insn_issue_per_warp                    1 # Max number of instructions that can be issued per warp in one cycle by scheduler (either 1 or 2)
-gpgpu_dual_issue_diff_exec_units                    1 # should dual issue use two different execution unit resources (Default = 1)
-gpgpu_simt_core_sim_order                    1 # Select the simulation order of cores in a cluster (0=Fix, 1=Round-Robin)
-gpgpu_pipeline_widths 4,4,4,4,4,4,4,4,4,4,8,4,4 # Pipeline widths ID_OC_SP,ID_OC_DP,ID_OC_INT,ID_OC_SFU,ID_OC_MEM,OC_EX_SP,OC_EX_DP,OC_EX_INT,OC_EX_SFU,OC_EX_MEM,EX_WB,ID_OC_TENSOR_CORE,OC_EX_TENSOR_CORE
-gpgpu_tensor_core_avail                    1 # Tensor Core Available (default=0)
-gpgpu_num_sp_units                     4 # Number of SP units (default=1)
-gpgpu_num_dp_units                     4 # Number of DP units (default=0)
-gpgpu_num_int_units                    4 # Number of INT units (default=0)
-gpgpu_num_sfu_units                    4 # Number of SF units (default=1)
-gpgpu_num_tensor_core_units                    4 # Number of tensor_core units (default=1)
-gpgpu_num_mem_units                    1 # Number if ldst units (default=1) WARNING: not hooked up to anything
-gpgpu_scheduler                      lrr # Scheduler configuration: < lrr | gto | two_level_active > If two_level_active:<num_active_warps>:<inner_prioritization>:<outer_prioritization>For complete list of prioritization values see shader.h enum scheduler_prioritization_typeDefault: gto
-gpgpu_concurrent_kernel_sm                    0 # Support concurrent kernels on a SM (default = disabled)
-gpgpu_perfect_inst_const_cache                    1 # perfect inst and const cache mode, so all inst and const hits in the cache(default = disabled)
-gpgpu_inst_fetch_throughput                    4 # the number of fetched intruction per warp each cycle
-gpgpu_reg_file_port_throughput                    2 # the number ports of the register file
-specialized_unit_1         0,4,4,4,4,BRA # specialized unit config {<enabled>,<num_units>:<latency>:<initiation>,<ID_OC_SPEC>:<OC_EX_SPEC>,<NAME>}
-specialized_unit_2         0,4,4,4,4,BRA # specialized unit config {<enabled>,<num_units>:<latency>:<initiation>,<ID_OC_SPEC>:<OC_EX_SPEC>,<NAME>}
-specialized_unit_3         0,4,4,4,4,BRA # specialized unit config {<enabled>,<num_units>:<latency>:<initiation>,<ID_OC_SPEC>:<OC_EX_SPEC>,<NAME>}
-specialized_unit_4         0,4,4,4,4,BRA # specialized unit config {<enabled>,<num_units>:<latency>:<initiation>,<ID_OC_SPEC>:<OC_EX_SPEC>,<NAME>}
-specialized_unit_5         0,4,4,4,4,BRA # specialized unit config {<enabled>,<num_units>:<latency>:<initiation>,<ID_OC_SPEC>:<OC_EX_SPEC>,<NAME>}
-specialized_unit_6         0,4,4,4,4,BRA # specialized unit config {<enabled>,<num_units>:<latency>:<initiation>,<ID_OC_SPEC>:<OC_EX_SPEC>,<NAME>}
-specialized_unit_7         0,4,4,4,4,BRA # specialized unit config {<enabled>,<num_units>:<latency>:<initiation>,<ID_OC_SPEC>:<OC_EX_SPEC>,<NAME>}
-specialized_unit_8         0,4,4,4,4,BRA # specialized unit config {<enabled>,<num_units>:<latency>:<initiation>,<ID_OC_SPEC>:<OC_EX_SPEC>,<NAME>}
-gpgpu_perf_sim_memcpy                    1 # Fill the L2 cache on memcpy
-gpgpu_simple_dram_model                    0 # simple_dram_model with fixed latency and BW
-gpgpu_dram_scheduler                    1 # 0 = fifo, 1 = FR-FCFS (defaul)
-gpgpu_dram_partition_queues          64:64:64:64 # i2$:$2d:d2$:$2i
-l2_ideal                               0 # Use a ideal L2 cache that always hit
-gpgpu_cache:dl2     S:64:128:16,L:B:m:L:P,A:192:4,32:0,32 # unified banked L2 data cache config  {<nsets>:<bsize>:<assoc>,<rep>:<wr>:<alloc>:<wr_alloc>,<mshr>:<N>:<merge>,<mq>}
-gpgpu_cache:dl2_texture_only                    0 # L2 cache used for texture only
-gpgpu_n_mem                           12 # number of memory modules (e.g. memory controllers) in gpu
-gpgpu_n_sub_partition_per_mchannel                    2 # number of memory subpartition in each memory module
-gpgpu_n_mem_per_ctrlr                    1 # number of memory chips per memory controller
-gpgpu_memlatency_stat                   14 # track and display latency statistics 0x2 enables MC, 0x4 enables queue logs
-gpgpu_frfcfs_dram_sched_queue_size                   64 # 0 = unlimited (default); # entries per chip
-gpgpu_dram_return_queue_size                  192 # 0 = unlimited (default); # entries per chip
-gpgpu_dram_buswidth                    2 # default = 4 bytes (8 bytes per cycle at DDR)
-gpgpu_dram_burst_length                   16 # Burst length of each DRAM request (default = 4 data bus cycle)
-dram_data_command_freq_ratio                    4 # Frequency ratio between DRAM data bus and command bus (default = 2 times, i.e. DDR)
-gpgpu_dram_timing_opt nbk=16:CCD=4:RRD=12:RCD=24:RAS=55:RP=24:RC=78:CL=24:WL=8:CDLR=10:WR=24:nbkgrp=4:CCDL=6:RTPL=4 # DRAM timing parameters = {nbk:tCCD:tRRD:tRCD:tRAS:tRP:tRC:CL:WL:tCDLR:tWR:nbkgrp:tCCDL:tRTPL}
-gpgpu_l2_rop_latency                  194 # ROP queue latency (default 85)
-dram_latency                          96 # DRAM latency (default 30)
-dram_dual_bus_interface                    0 # dual_bus_interface (default = 0) 
-dram_bnk_indexing_policy                    0 # dram_bnk_indexing_policy (0 = normal indexing, 1 = Xoring with the higher bits) (Default = 0)
-dram_bnkgrp_indexing_policy                    1 # dram_bnkgrp_indexing_policy (0 = take higher bits, 1 = take lower bits) (Default = 0)
-dram_seperate_write_queue_enable                    0 # Seperate_Write_Queue_Enable
-dram_write_queue_size             32:28:16 # Write_Queue_Size
-dram_elimnate_rw_turnaround                    0 # elimnate_rw_turnaround i.e set tWTR and tRTW = 0
-icnt_flit_size                        40 # icnt_flit_size
-icnt_flit_size                        40 # icnt_flit_size
-mem_profiler                           0 # memory access runtime profiling (0 = not enabled)
-gpgpu_mem_addr_mapping dramid@8;00000000.00000000.00000000.00000000.0000RRRR.RRRRRRRR.RBBBCCCC.BCCSSSSS # mapping memory address to dram model {dramid@<start bit>;<memory address map>}
-gpgpu_mem_addr_test                    0 # run sweep test to check address mapping for aliased address
-gpgpu_mem_address_mask                    1 # 0 = old addressing mask, 1 = new addressing mask, 2 = new add. mask + flipped bank sel and chip sel bits
-gpgpu_memory_partition_indexing                    0 # 0 = no indexing, 1 = bitwise xoring, 2 = IPoly, 3 = custom indexing
-accelwattch_xml_file accelwattch_sass_sim.xml # AccelWattch XML file
-power_simulation_enabled                    1 # Turn on power simulator (1=On, 0=Off)
-power_per_cycle_dump                    1 # Dump detailed power output each cycle
-hw_perf_file_name            hw_perf.csv # Hardware Performance Statistics file
-hw_perf_bench_name    hw_perf_bench_name # Kernel Name in Hardware Performance Statistics file
-power_simulation_mode                    0 # Switch performance counter input for power simulation (0=Sim, 1=HW, 2=HW-Sim Hybrid)
-dvfs_enabled                           1 # Turn on DVFS for power model
-aggregate_power_stats                    0 # Accumulate power across all kernels
-accelwattch_hybrid_perfsim_L1_RH                    0 # Get L1 Read Hits for Accelwattch-Hybrid from Accel-Sim
-accelwattch_hybrid_perfsim_L1_RM                    0 # Get L1 Read Misses for Accelwattch-Hybrid from Accel-Sim
-accelwattch_hybrid_perfsim_L1_WH                    0 # Get L1 Write Hits for Accelwattch-Hybrid from Accel-Sim
-accelwattch_hybrid_perfsim_L1_WM                    0 # Get L1 Write Misses for Accelwattch-Hybrid from Accel-Sim
-accelwattch_hybrid_perfsim_L2_RH                    0 # Get L2 Read Hits for Accelwattch-Hybrid from Accel-Sim
-accelwattch_hybrid_perfsim_L2_RM                    0 # Get L2 Read Misses for Accelwattch-Hybrid from Accel-Sim
-accelwattch_hybrid_perfsim_L2_WH                    0 # Get L2 Write Hits for Accelwattch-Hybrid from Accel-Sim
-accelwattch_hybrid_perfsim_L2_WM                    0 # Get L2 Write Misses for Accelwattch-Hybrid from Accel-Sim
-accelwattch_hybrid_perfsim_CC_ACC                    0 # Get Constant Cache Acesses for Accelwattch-Hybrid from Accel-Sim
-accelwattch_hybrid_perfsim_SHARED_ACC                    0 # Get Shared Memory Acesses for Accelwattch-Hybrid from Accel-Sim
-accelwattch_hybrid_perfsim_DRAM_RD                    0 # Get DRAM Reads for Accelwattch-Hybrid from Accel-Sim
-accelwattch_hybrid_perfsim_DRAM_WR                    0 # Get DRAM Writes for Accelwattch-Hybrid from Accel-Sim
-accelwattch_hybrid_perfsim_NOC                    0 # Get Interconnect Acesses for Accelwattch-Hybrid from Accel-Sim
-accelwattch_hybrid_perfsim_PIPE_DUTY                    0 # Get Pipeline Duty Cycle Acesses for Accelwattch-Hybrid from Accel-Sim
-accelwattch_hybrid_perfsim_NUM_SM_IDLE                    0 # Get Number of Idle SMs for Accelwattch-Hybrid from Accel-Sim
-accelwattch_hybrid_perfsim_CYCLES                    0 # Get Executed Cycles for Accelwattch-Hybrid from Accel-Sim
-accelwattch_hybrid_perfsim_VOLTAGE                    0 # Get Chip Voltage for Accelwattch-Hybrid from Accel-Sim
-power_trace_enabled                    0 # produce a file for the power trace (1=On, 0=Off)
-power_trace_zlevel                     0 # Compression level of the power trace output log (0=no comp, 9=highest)
-steady_power_levels_enabled                    0 # produce a file for the steady power levels (1=On, 0=Off)
-steady_state_definition                  8:4 # allowed deviation:number of samples
-gpgpu_max_cycle                        0 # terminates gpu simulation early (0 = no limit)
-gpgpu_max_insn                         0 # terminates gpu simulation early (0 = no limit)
-gpgpu_max_cta                          0 # terminates gpu simulation early (0 = no limit)
-gpgpu_max_completed_cta                    0 # terminates gpu simulation early (0 = no limit)
-gpgpu_runtime_stat                  1000 # display runtime statistics such as dram utilization {<freq>:<flag>}
-liveness_message_freq                    1 # Minimum number of seconds between simulation liveness messages (0 = always print)
-gpgpu_compute_capability_major                    7 # Major compute capability version number
-gpgpu_compute_capability_minor                    5 # Minor compute capability version number
-gpgpu_flush_l1_cache                    1 # Flush L1 cache at the end of each kernel call
-gpgpu_flush_l2_cache                    0 # Flush L2 cache at the end of each kernel call
-gpgpu_deadlock_detect                    1 # Stop the simulation at deadlock (1=on (default), 0=off)
-gpgpu_ptx_instruction_classification                    0 # if enabled will classify ptx instruction types per kernel (Max 255 kernels now)
-gpgpu_ptx_sim_mode                     0 # Select between Performance (default) or Functional simulation (1)
-gpgpu_clock_domains 1365:1365:1365:3500.5 # Clock Domain Frequencies in MhZ {<Core Clock>:<ICNT Clock>:<L2 Clock>:<DRAM Clock>}
-gpgpu_max_concurrent_kernel                  128 # maximum kernels that can run concurrently on GPU, set this value according to max resident grids for your compute capability
-gpgpu_cflog_interval                    0 # Interval between each snapshot in control flow logger
-visualizer_enabled                     0 # Turn on visualizer output (1=On, 0=Off)
-visualizer_outputfile                 NULL # Specifies the output log file for visualizer
-visualizer_zlevel                      6 # Compression level of the visualizer output log (0=no comp, 9=highest)
-gpgpu_stack_size_limit                 1024 # GPU thread stack size
-gpgpu_heap_size_limit              8388608 # GPU malloc heap size 
-gpgpu_runtime_sync_depth_limit                    2 # GPU device runtime synchronize depth
-gpgpu_runtime_pending_launch_count_limit                 2048 # GPU device runtime pending launch count
-trace_enabled                          0 # Turn on traces
-trace_components                    none # comma seperated list of traces to enable. Complete list found in trace_streams.tup. Default none
-trace_sampling_core                    0 # The core which is printed using CORE_DPRINTF. Default 0
-trace_sampling_memory_partition                   -1 # The memory partition which is printed using MEMPART_DPRINTF. Default -1 (i.e. all)
-enable_ptx_file_line_stats                    1 # Turn on PTX source line statistic profiling. (1 = On)
-ptx_line_stats_filename gpgpu_inst_stats.txt # Output file for PTX source line statistics.
-gpgpu_kernel_launch_latency                 5000 # Kernel launch latency in cycles. Default: 0
-gpgpu_cdp_enabled                      0 # Turn on CDP
-gpgpu_TB_launch_latency                    0 # thread block launch latency in cycles. Default: 0
-mem_runtime_stat                     100 # memory access runtime profiling sampling20be9959047424737a0422e874fccc2e  /home/pars/Documents/sim_10/cc_afforest
Extracting PTX file and ptxas options    1: cc_afforest.1.sm_75.ptx -arch=sm_75
 freq
-L1D_metrics                            0 # memory access runtime profiling for L1 data cache
-IPC_per_prof_interval                    0 # IPC per profiling interval
-instruction_monitor                    0 # Instruction monitor
-noncoal_metrics                        0 # memory access runtime profiling for shared memory
-L2_metrics                             0 # memory access runtime profiling for L2 cache
-DRAM_metrics                           0 # memory access runtime profiling for DRAM
-Shmem_metrics                          0 # memory access runtime profiling for noncoalesced accesses
-store_enable                           0 # Enable stores for memory profiling
-accumulate_stats                       0 # Accumulate stats for the memory profiling
-dump_enable                            0 # Process dump enable flag - (def = 0)
-flush_l1d                              0 # Enable flushings for L1D caches - (default = 0)
-flush_l2                               0 # Enable flushings for L2 caches - (default = 0)
-flush_dram                             0 # Enable flushings for DRAM - (default = 0)
-flush_noncoalesceds                    0 # Enable flushings for non coalesced accesses - (default = 0)
-flush_shmems                           0 # Enable flushings for shared memory accesses - (default = 0)
-error_percentage          21474836480001 # Error percentage for the flushes - (default = 1)
-dump_sampling_cycle       21474836485000 # Dump sampling frequency - (default = 5000)
-flush_acc_type                         2 # Flush access types
-monitor_sampling_cycle                 5000 # Monitoring sampling cycle - (default = 5000)
DRAM Timing Options:
nbk                                    16 # number of banks
CCD                                     4 # column to column delay
RRD                                    12 # minimal delay between activation of rows in different banks
RCD                                    24 # row to column delay
RAS                                    55 # time needed to activate row
RP                                     24 # time needed to precharge (deactivate) row
RC                                     78 # row cycle time
CDLR                                   10 # switching from write to read (changes tWTR)
WR                                     24 # last data-in to row precharge
CL                                     24 # CAS latency
WL                                      8 # Write latency
nbkgrp                                  4 # number of bank groups
CCDL                                    6 # column to column delay between accesses to different bank groups
RTPL                                    4 # read to precharge delay between accesses to different bank groups
Total number of memory sub partition = 24
addr_dec_mask[CHIP]  = 0000000000000000 	high:64 low:0
addr_dec_mask[BK]    = 0000000000007080 	high:15 low:7
addr_dec_mask[ROW]   = 000000000fff8000 	high:28 low:15
addr_dec_mask[COL]   = 0000000000000f7f 	high:12 low:0
addr_dec_mask[BURST] = 000000000000001f 	high:5 low:0
sub_partition_id_mask = 0000000000000080
GPGPU-Sim uArch: clock freqs: 1365000000.000000:1365000000.000000:1365000000.000000:3500500000.000000
GPGPU-Sim uArch: clock periods: 0.00000000073260073260:0.00000000073260073260:0.00000000073260073260:0.00000000028567347522
*** Initializing Memory Statistics ***
GPGPU-Sim uArch: performance model initialization complete.
self exe links to: /home/pars/Documents/sim_10/cc_afforest
self exe links to: /home/pars/Documents/sim_10/cc_afforest
11.0
GPGPU-Sim PTX: __cudaRegisterFatBinary, fat_cubin_handle = 1, filename=default
self exe links to: /home/pars/Documents/sim_10/cc_afforest
Running md5sum using "md5sum /home/pars/Documents/sim_10/cc_afforest "
self exe links to: /home/pars/Documents/sim_10/cc_afforest
Extracting specific PTX file named cc_afforest.1.sm_75.ptx 
GPGPU-Sim PTX: __cudaRegisterFunction _Z17afforest_directediiPKmPKiS0_S2_Pii : hostFun 0x0x556f6b6dd5b6, fat_cubin_handle = 1
GPGPU-Sim PTX: Parsing cc_afforest.1.sm_75.ptx
GPGPU-Sim PTX: instruction assembly for function '_Z8compressiPi'...   done.
GPGPU-Sim PTX: instruction assembly for function '_Z8afforestiPKmPKiPii'...   done.
GPGPU-Sim PTX: instruction assembly for function '_Z19afforest_undirectediiPKmPKiPii'...   done.
GPGPU-Sim PTX: instruction assembly for function '_Z17afforest_directediiPKmPKiS0_S2_Pii'...   done.
GPGPU-Sim PTX: finished parsing EMBEDDED .ptx file cc_afforest.1.sm_75.ptx
GPGPU-Sim PTX: loading globals with explicit initializers... 
GPGPU-Sim PTX: finished loading globals (0 bytes total).
GPGPU-Sim PTX: loading constants with explicit initializers...  done.
GPGPU-Sim PTX: Loading PTXInfo from cc_afforest.1.sm_75.ptx
GPGPU-Sim PTX: Kernel '_Z17afforest_directediiPKmPKiS0_S2_Pii' : regs=16, lmem=0, smem=0, cmem=404
GPGPU-Sim PTX: Kernel '_Z19afforest_undirectediiPKmPKiPii' : regs=16, lmem=0, smem=0, cmem=388
GPGPU-Sim PTX: Kernel '_Z8afforestiPKmPKiPii' : regs=12, lmem=0, smem=0, cmem=388
GPGPU-Sim PTX: Kernel '_Z8compressiPi' : regs=12, lmem=0, smem=0, cmem=368
GPGPU-Sim PTX: __cudaRegisterFunction _Z19afforest_undirectediiPKmPKiPii : hostFun 0x0x556f6b6dd382, fat_cubin_handle = 1
GPGPU-Sim PTX: __cudaRegisterFunction _Z8afforestiPKmPKiPii : hostFun 0x0x556f6b6dd19c, fat_cubin_handle = 1
GPGPU-Sim PTX: __cudaRegisterFunction _Z8compressiPi : hostFun 0x0x556f6b6dcff7, fat_cubin_handle = 1
Connected Component by Xuhao Chen
Reading (.mtx) input file ../CudaBenchmarks/gardenia/datasets/great-britain_osm.mtx
Removing redundent edges... 0 redundent edges are removed
|V| 7733822 |E| 16313034
This graph is symmetrized
Launching CUDA CC solver (30211 CTAs, 256 threads/CTA) ...
GPGPU-Sim PTX: Setting up arguments for 4 bytes starting at 0x7ffdc3b144fc..
GPGPU-Sim PTX: Setting up arguments for 8 bytes starting at 0x7ffdc3b144f0..
GPGPU-Sim PTX: Setting up arguments for 8 bytes starting at 0x7ffdc3b144e8..
GPGPU-Sim PTX: Setting up arguments for 8 bytes starting at 0x7ffdc3b144e0..
GPGPU-Sim PTX: Setting up arguments for 4 bytes starting at 0x7ffdc3b144f8..

GPGPU-Sim PTX: cudaLaunch for 0x0x556f6b6dd19c (mode=performance simulation) on stream 0
GPGPU-Sim PTX: finding reconvergence points for '_Z8afforestiPKmPKiPii'...
GPGPU-Sim PTX: Finding dominators for '_Z8afforestiPKmPKiPii'...
GPGPU-Sim PTX: Finding immediate dominators for '_Z8afforestiPKmPKiPii'...
GPGPU-Sim PTX: Finding postdominators for '_Z8afforestiPKmPKiPii'...
GPGPU-Sim PTX: Finding immediate postdominators for '_Z8afforestiPKmPKiPii'...
GPGPU-Sim PTX: pre-decoding instructions for '_Z8afforestiPKmPKiPii'...
GPGPU-Sim PTX: reconvergence points for _Z8afforestiPKmPKiPii...
GPGPU-Sim PTX:  1 (potential) branch divergence @  PC=0x120 (cc_afforest.1.sm_75.ptx:82) @%p1 bra $L__BB1_9;

GPGPU-Sim PTX:    immediate post dominator      @  PC=0x288 (cc_afforest.1.sm_75.ptx:138) ret;

GPGPU-Sim PTX:  2 (potential) branch divergence @  PC=0x170 (cc_afforest.1.sm_75.ptx:93) @%p2 bra $L__BB1_9;

GPGPU-Sim PTX:    immediate post dominator      @  PC=0x288 (cc_afforest.1.sm_75.ptx:138) ret;

GPGPU-Sim PTX:  3 (potential) branch divergence @  PC=0x1d0 (cc_afforest.1.sm_75.ptx:106) @%p3 bra $L__BB1_9;

GPGPU-Sim PTX:    immediate post dominator      @  PC=0x288 (cc_afforest.1.sm_75.ptx:138) ret;

GPGPU-Sim PTX:  4 (potential) branch divergence @  PC=0x210 (cc_afforest.1.sm_75.ptx:116) @%p4 bra $L__BB1_9;

GPGPU-Sim PTX:    immediate post dominator      @  PC=0x288 (cc_afforest.1.sm_75.ptx:138) ret;

GPGPU-Sim PTX:  5 (potential) branch divergence @  PC=0x220 (cc_afforest.1.sm_75.ptx:119) @%p5 bra $L__BB1_8;

GPGPU-Sim PTX:    immediate post dominator      @  PC=0x288 (cc_afforest.1.sm_75.ptx:138) ret;

GPGPU-Sim PTX:  6 (potential) branch divergence @  PC=0x238 (cc_afforest.1.sm_75.ptx:123) @%p6 bra $L__BB1_9;

GPGPU-Sim PTX:    immediate post dominator      @  PC=0x288 (cc_afforest.1.sm_75.ptx:138) ret;

GPGPU-Sim PTX:  7 (potential) branch divergence @  PC=0x280 (cc_afforest.1.sm_75.ptx:135) @%p7 bra $L__BB1_4;

GPGPU-Sim PTX:    immediate post dominator      @  PC=0x288 (cc_afforest.1.sm_75.ptx:138) ret;

GPGPU-Sim PTX: ... end of reconvergence points for _Z8afforestiPKmPKiPii
GPGPU-Sim PTX: ... done pre-decoding instructions for '_Z8afforestiPKmPKiPii'.
GPGPU-Sim PTX: pushing kernel '_Z8afforestiPKmPKiPii' to stream 0, gridDim= (30211,1,1) blockDim = (256,1,1) 
GPGPU-Sim uArch: Shader 0 bind to kernel 1 '_Z8afforestiPKmPKiPii'
GPGPU-Sim uArch: CTA/core = 4, limited by: threads
GPGPU-Sim: Reconfigure L1 cache to 64KB
GPGPU-Sim uArch: Shader 1 bind to kernel 1 '_Z8afforestiPKmPKiPii'
GPGPU-Sim uArch: Shader 2 bind to kernel 1 '_Z8afforestiPKmPKiPii'
GPGPU-Sim uArch: Shader 3 bind to kernel 1 '_Z8afforestiPKmPKiPii'
GPGPU-Sim uArch: Shader 4 bind to kernel 1 '_Z8afforestiPKmPKiPii'
GPGPU-Sim uArch: Shader 5 bind to kernel 1 '_Z8afforestiPKmPKiPii'
GPGPU-Sim uArch: Shader 6 bind to kernel 1 '_Z8afforestiPKmPKiPii'
GPGPU-Sim uArch: Shader 7 bind to kernel 1 '_Z8afforestiPKmPKiPii'
GPGPU-Sim uArch: Shader 8 bind to kernel 1 '_Z8afforestiPKmPKiPii'
GPGPU-Sim uArch: Shader 9 bind to kernel 1 '_Z8afforestiPKmPKiPii'
GPGPU-Sim uArch: Shader 10 bind to kernel 1 '_Z8afforestiPKmPKiPii'
GPGPU-Sim uArch: Shader 11 bind to kernel 1 '_Z8afforestiPKmPKiPii'
GPGPU-Sim uArch: Shader 12 bind to kernel 1 '_Z8afforestiPKmPKiPii'
GPGPU-Sim uArch: Shader 13 bind to kernel 1 '_Z8afforestiPKmPKiPii'
GPGPU-Sim uArch: Shader 14 bind to kernel 1 '_Z8afforestiPKmPKiPii'
GPGPU-Sim uArch: Shader 15 bind to kernel 1 '_Z8afforestiPKmPKiPii'
GPGPU-Sim uArch: Shader 16 bind to kernel 1 '_Z8afforestiPKmPKiPii'
GPGPU-Sim uArch: Shader 17 bind to kernel 1 '_Z8afforestiPKmPKiPii'
GPGPU-Sim uArch: Shader 18 bind to kernel 1 '_Z8afforestiPKmPKiPii'
GPGPU-Sim uArch: Shader 19 bind to kernel 1 '_Z8afforestiPKmPKiPii'
GPGPU-Sim uArch: Shader 20 bind to kernel 1 '_Z8afforestiPKmPKiPii'
GPGPU-Sim uArch: Shader 21 bind to kernel 1 '_Z8afforestiPKmPKiPii'
GPGPU-Sim uArch: Shader 22 bind to kernel 1 '_Z8afforestiPKmPKiPii'
GPGPU-Sim uArch: Shader 23 bind to kernel 1 '_Z8afforestiPKmPKiPii'
GPGPU-Sim uArch: Shader 24 bind to kernel 1 '_Z8afforestiPKmPKiPii'
GPGPU-Sim uArch: Shader 25 bind to kernel 1 '_Z8afforestiPKmPKiPii'
GPGPU-Sim uArch: Shader 26 bind to kernel 1 '_Z8afforestiPKmPKiPii'
GPGPU-Sim uArch: Shader 27 bind to kernel 1 '_Z8afforestiPKmPKiPii'
GPGPU-Sim uArch: Shader 28 bind to kernel 1 '_Z8afforestiPKmPKiPii'
GPGPU-Sim uArch: Shader 29 bind to kernel 1 '_Z8afforestiPKmPKiPii'
Destroy streams for kernel 1: size 0
kernel_name = _Z8afforestiPKmPKiPii 
kernel_launch_uid = 1 
gpu_sim_cycle = 917453
gpu_sim_insn = 335912791
gpu_ipc =     366.1363
gpu_tot_sim_cycle = 917453
gpu_tot_sim_insn = 335912791
gpu_tot_ipc =     366.1363
gpu_tot_issued_cta = 30211
gpu_occupancy = 84.7497% 
gpu_tot_occupancy = 84.7497% 
max_total_param_size = 0
gpu_stall_dramfull = 225982
gpu_stall_icnt2sh    = 0
partiton_level_parallism =       7.8185
partiton_level_parallism_total  =       7.8185
partiton_level_parallism_util =       7.8721
partiton_level_parallism_util_total  =       7.8721
L2_BW  =     341.5107 GB/Sec
L2_BW_total  =     341.5107 GB/Sec
gpu_total_sim_rate=36046

========= Core cache stats =========
L1I_cache:
	L1I_total_cache_accesses = 0
	L1I_total_cache_misses = 0
	L1I_total_cache_pending_hits = 0
	L1I_total_cache_reservation_fails = 0
L1D_cache:
	L1D_cache_core[0]: Access = 377550, Miss = 194143, Miss_rate = 0.514, Pending_hits = 118421, Reservation_fails = 70683
	L1D_cache_core[1]: Access = 380189, Miss = 195692, Miss_rate = 0.515, Pending_hits = 119227, Reservation_fails = 72926
	L1D_cache_core[2]: Access = 380528, Miss = 195305, Miss_rate = 0.513, Pending_hits = 119456, Reservation_fails = 71388
	L1D_cache_core[3]: Access = 379791, Miss = 195270, Miss_rate = 0.514, Pending_hits = 118944, Reservation_fails = 72026
	L1D_cache_core[4]: Access = 380679, Miss = 195856, Miss_rate = 0.514, Pending_hits = 119603, Reservation_fails = 72865
	L1D_cache_core[5]: Access = 379221, Miss = 194903, Miss_rate = 0.514, Pending_hits = 118810, Reservation_fails = 72987
	L1D_cache_core[6]: Access = 376593, Miss = 193641, Miss_rate = 0.514, Pending_hits = 118126, Reservation_fails = 69946
	L1D_cache_core[7]: Access = 378556, Miss = 195072, Miss_rate = 0.515, Pending_hits = 118747, Reservation_fails = 73205
	L1D_cache_core[8]: Access = 379884, Miss = 195484, Miss_rate = 0.515, Pending_hits = 119420, Reservation_fails = 70245
	L1D_cache_core[9]: Access = 379975, Miss = 195066, Miss_rate = 0.513, Pending_hits = 119535, Reservation_fails = 66147
	L1D_cache_core[10]: Access = 381354, Miss = 195675, Miss_rate = 0.513, Pending_hits = 119399, Reservation_fails = 75206
	L1D_cache_core[11]: Access = 380920, Miss = 195817, Miss_rate = 0.514, Pending_hits = 119288, Reservation_fails = 70883
	L1D_cache_core[12]: Access = 379133, Miss = 195113, Miss_rate = 0.515, Pending_hits = 118905, Reservation_fails = 72016
	L1D_cache_core[13]: Access = 379760, Miss = 195217, Miss_rate = 0.514, Pending_hits = 119196, Reservation_fails = 72058
	L1D_cache_core[14]: Access = 378470, Miss = 194569, Miss_rate = 0.514, Pending_hits = 118593, Reservation_fails = 69418
	L1D_cache_core[15]: Access = 379955, Miss = 194966, Miss_rate = 0.513, Pending_hits = 119360, Reservation_fails = 69902
	L1D_cache_core[16]: Access = 380545, Miss = 195802, Miss_rate = 0.515, Pending_hits = 119212, Reservation_fails = 68663
	L1D_cache_core[17]: Access = 379338, Miss = 195320, Miss_rate = 0.515, Pending_hits = 118673, Reservation_fails = 71413
	L1D_cache_core[18]: Access = 380393, Miss = 195315, Miss_rate = 0.513, Pending_hits = 119078, Reservation_fails = 68346
	L1D_cache_core[19]: Access = 379249, Miss = 194983, Miss_rate = 0.514, Pending_hits = 119233, Reservation_fails = 70873
	L1D_cache_core[20]: Access = 377422, Miss = 194496, Miss_rate = 0.515, Pending_hits = 118321, Reservation_fails = 71219
	L1D_cache_core[21]: Access = 380228, Miss = 195538, Miss_rate = 0.514, Pending_hits = 119179, Reservation_fails = 72077
	L1D_cache_core[22]: Access = 378461, Miss = 194503, Miss_rate = 0.514, Pending_hits = 118572, Reservation_fails = 69092
	L1D_cache_core[23]: Access = 378498, Miss = 194632, Miss_rate = 0.514, Pending_hits = 118610, Reservation_fails = 69936
	L1D_cache_core[24]: Access = 379401, Miss = 195068, Miss_rate = 0.514, Pending_hits = 119128, Reservation_fails = 67942
	L1D_cache_core[25]: Access = 379555, Miss = 194943, Miss_rate = 0.514, Pending_hits = 118937, Reservation_fails = 71759
	L1D_cache_core[26]: Access = 381191, Miss = 195303, Miss_rate = 0.512, Pending_hits = 119592, Reservation_fails = 72713
	L1D_cache_core[27]: Access = 380043, Miss = 195236, Miss_rate = 0.514, Pending_hits = 119299, Reservation_fails = 71484
	L1D_cache_core[28]: Access = 380270, Miss = 195649, Miss_rate = 0.515, Pending_hits = 119277, Reservation_fails = 70240
	L1D_cache_core[29]: Access = 378753, Miss = 194886, Miss_rate = 0.515, Pending_hits = 118749, Reservation_fails = 73896
	L1D_total_cache_accesses = 11385905
	L1D_total_cache_misses = 5853463
	L1D_total_cache_miss_rate = 0.5141
	L1D_total_cache_pending_hits = 3570890
	L1D_total_cache_reservation_fails = 2131554
	L1D_cache_data_port_util = 0.072
	L1D_cache_fill_port_util = 0.214
L1C_cache:
	L1C_total_cache_accesses = 0
	L1C_total_cache_misses = 0
	L1C_total_cache_pending_hits = 0
	L1C_total_cache_reservation_fails = 0
L1T_cache:
	L1T_total_cache_accesses = 0
	L1T_total_cache_misses = 0
	L1T_total_cache_pending_hits = 0
	L1T_total_cache_reservation_fails = 0

Total_core_cache_stats:
	Total_core_cache_stats_breakdown[GLOBAL_ACC_R][HIT] = 1961552
	Total_core_cache_stats_breakdown[GLOBAL_ACC_R][HIT_RESERVED] = 3570890
	Total_core_cache_stats_breakdown[GLOBAL_ACC_R][MISS] = 2025533
	Total_core_cache_stats_breakdown[GLOBAL_ACC_R][RESERVATION_FAIL] = 2131554
	Total_core_cache_stats_breakdown[GLOBAL_ACC_R][SECTOR_MISS] = 3827930
	Total_core_cache_stats_breakdown[GLOBAL_ACC_R][MSHR_HIT] = 3570890
	Total_core_cache_stats_breakdown[LOCAL_ACC_R][HIT] = 0
	Total_core_cache_stats_breakdown[LOCAL_ACC_R][HIT_RESERVED] = 0
	Total_core_cache_stats_breakdown[LOCAL_ACC_R][MISS] = 0
	Total_core_cache_stats_breakdown[LOCAL_ACC_R][RESERVATION_FAIL] = 0
	Total_core_cache_stats_breakdown[LOCAL_ACC_R][SECTOR_MISS] = 0
	Total_core_cache_stats_breakdown[LOCAL_ACC_R][MSHR_HIT] = 0
	Total_core_cache_stats_breakdown[CONST_ACC_R][HIT] = 0
	Total_core_cache_stats_breakdown[CONST_ACC_R][HIT_RESERVED] = 0
	Total_core_cache_stats_breakdown[CONST_ACC_R][MISS] = 0
	Total_core_cache_stats_breakdown[CONST_ACC_R][RESERVATION_FAIL] = 0
	Total_core_cache_stats_breakdown[CONST_ACC_R][SECTOR_MISS] = 0
	Total_core_cache_stats_breakdown[CONST_ACC_R][MSHR_HIT] = 0
	Total_core_cache_stats_breakdown[TEXTURE_ACC_R][HIT] = 0
	Total_core_cache_stats_breakdown[TEXTURE_ACC_R][HIT_RESERVED] = 0
	Total_core_cache_stats_breakdown[TEXTURE_ACC_R][MISS] = 0
	Total_core_cache_stats_breakdown[TEXTURE_ACC_R][RESERVATION_FAIL] = 0
	Total_core_cache_stats_breakdown[TEXTURE_ACC_R][SECTOR_MISS] = 0
	Total_core_cache_stats_breakdown[TEXTURE_ACC_R][MSHR_HIT] = 0
	Total_core_cache_stats_breakdown[GLOBAL_ACC_W][HIT] = 0
	Total_core_cache_stats_breakdown[GLOBAL_ACC_W][HIT_RESERVED] = 0
	Total_core_cache_stats_breakdown[GLOBAL_ACC_W][MISS] = 0
	Total_core_cache_stats_breakdown[GLOBAL_ACC_W][RESERVATION_FAIL] = 0
	Total_core_cache_stats_breakdown[GLOBAL_ACC_W][SECTOR_MISS] = 0
	Total_core_cache_stats_breakdown[GLOBAL_ACC_W][MSHR_HIT] = 0
	Total_core_cache_stats_breakdown[LOCAL_ACC_W][HIT] = 0
	Total_core_cache_stats_breakdown[LOCAL_ACC_W][HIT_RESERVED] = 0
	Total_core_cache_stats_breakdown[LOCAL_ACC_W][MISS] = 0
	Total_core_cache_stats_breakdown[LOCAL_ACC_W][RESERVATION_FAIL] = 0
	Total_core_cache_stats_breakdown[LOCAL_ACC_W][SECTOR_MISS] = 0
	Total_core_cache_stats_breakdown[LOCAL_ACC_W][MSHR_HIT] = 0
	Total_core_cache_stats_breakdown[L1_WRBK_ACC][HIT] = 0
	Total_core_cache_stats_breakdown[L1_WRBK_ACC][HIT_RESERVED] = 0
	Total_core_cache_stats_breakdown[L1_WRBK_ACC][MISS] = 0
	Total_core_cache_stats_breakdown[L1_WRBK_ACC][RESERVATION_FAIL] = 0
	Total_core_cache_stats_breakdown[L1_WRBK_ACC][SECTOR_MISS] = 0
	Total_core_cache_stats_breakdown[L1_WRBK_ACC][MSHR_HIT] = 0
	Total_core_cache_stats_breakdown[L2_WRBK_ACC][HIT] = 0
	Total_core_cache_stats_breakdown[L2_WRBK_ACC][HIT_RESERVED] = 0
	Total_core_cache_stats_breakdown[L2_WRBK_ACC][MISS] = 0
	Total_core_cache_stats_breakdown[L2_WRBK_ACC][RESERVATION_FAIL] = 0
	Total_core_cache_stats_breakdown[L2_WRBK_ACC][SECTOR_MISS] = 0
	Total_core_cache_stats_breakdown[L2_WRBK_ACC][MSHR_HIT] = 0
	Total_core_cache_stats_breakdown[INST_ACC_R][HIT] = 0
	Total_core_cache_stats_breakdown[INST_ACC_R][HIT_RESERVED] = 0
	Total_core_cache_stats_breakdown[INST_ACC_R][MISS] = 0
	Total_core_cache_stats_breakdown[INST_ACC_R][RESERVATION_FAIL] = 0
	Total_core_cache_stats_breakdown[INST_ACC_R][SECTOR_MISS] = 0
	Total_core_cache_stats_breakdown[INST_ACC_R][MSHR_HIT] = 0
	Total_core_cache_stats_breakdown[L1_WR_ALLOC_R][HIT] = 0
	Total_core_cache_stats_breakdown[L1_WR_ALLOC_R][HIT_RESERVED] = 0
	Total_core_cache_stats_breakdown[L1_WR_ALLOC_R][MISS] = 0
	Total_core_cache_stats_breakdown[L1_WR_ALLOC_R][RESERVATION_FAIL] = 0
	Total_core_cache_stats_breakdown[L1_WR_ALLOC_R][SECTOR_MISS] = 0
	Total_core_cache_stats_breakdown[L1_WR_ALLOC_R][MSHR_HIT] = 0
	Total_core_cache_stats_breakdown[L2_WR_ALLOC_R][HIT] = 0
	Total_core_cache_stats_breakdown[L2_WR_ALLOC_R][HIT_RESERVED] = 0
	Total_core_cache_stats_breakdown[L2_WR_ALLOC_R][MISS] = 0
	Total_core_cache_stats_breakdown[L2_WR_ALLOC_R][RESERVATION_FAIL] = 0
	Total_core_cache_stats_breakdown[L2_WR_ALLOC_R][SECTOR_MISS] = 0
	Total_core_cache_stats_breakdown[L2_WR_ALLOC_R][MSHR_HIT] = 0
	Total_core_cache_stats_breakdown[GLOBAL_ACC_R][TOTAL_ACCESS] = 11385905

Total_core_cache_fail_stats:
	Total_core_cache_fail_stats_breakdown[GLOBAL_ACC_R][MISS_QUEUE_FULL] = 1952892
	Total_core_cache_fail_stats_breakdown[GLOBAL_ACC_R][MSHR_ENRTY_FAIL] = 178662
ctas_completed 30211, Shader 0 warp_id issue ditsribution:
warp_id:
0, 1, 2, 3, 4, 5, 6, 7, 8, 9, 10, 11, 12, 13, 14, 15, 16, 17, 18, 19, 20, 21, 22, 23, 24, 25, 26, 27, 28, 29, 30, 31, 
distro:
14237, 14269, 14330, 14313, 14282, 14436, 14240, 14230, 14107, 14094, 13975, 14047, 14005, 14050, 14116, 14161, 14094, 14178, 14107, 14022, 14024, 14018, 14217, 14037, 14169, 14172, 14371, 14121, 14116, 14229, 14081, 14077, 
gpgpu_n_tot_thrd_icount = 436755616
gpgpu_n_tot_w_icount = 13648613
gpgpu_n_stall_shd_mem = 2936439
gpgpu_n_mem_read_local = 0
gpgpu_n_mem_write_local = 0
gpgpu_n_mem_read_global = 7173078
gpgpu_n_mem_write_global = 0
gpgpu_n_mem_texture = 0
gpgpu_n_mem_const = 0
gpgpu_n_load_insn  = 55360553
gpgpu_n_store_insn = 0
gpgpu_n_shmem_insn = 0
gpgpu_n_sstarr_insn = 0
gpgpu_n_tex_insn = 0
gpgpu_n_const_mem_insn = 0
gpgpu_n_param_mem_insn = 38670080
gpgpu_n_shmem_bkconflict = 0
gpgpu_n_cache_bkconflict = 0
gpgpu_n_intrawarp_mshr_merge = 0
gpgpu_n_cmem_portconflict = 0
gpgpu_stall_shd_mem[c_mem][resource_stall] = 0
gpgpu_stall_shd_mem[s_mem][bk_conf] = 0
gpgpu_stall_shd_mem[gl_mem][resource_stall] = 464103
gpgpu_stall_shd_mem[gl_mem][coal_stall] = 2472336
gpgpu_stall_shd_mem[gl_mem][data_port_stall] = 0
gpu_reg_bank_conflict_stalls = 0
Warp Occupancy Distribution:
Stall:4101261	W0_Idle:138569	W0_Scoreboard:91545321	W1:1025613	W2:487489	W3:252740	W4:134494	W5:73838	W6:39078	W7:20396	W8:9022	W9:3467	W10:1213	W11:355	W12:63	W13:31	W14:0	W15:0	W16:0	W17:0	W18:0	W19:0	W20:0	W21:0	W22:0	W23:0	W24:0	W25:0	W26:0	W27:0	W28:0	W29:13	W30:280	W31:19289	W32:11581232
single_issue_nums: WS0:3411221	WS1:3414007	WS2:3412490	WS3:3410895	
dual_issue_nums: WS0:0	WS1:0	WS2:0	WS3:0	
traffic_breakdown_coretomem[GLOBAL_ACC_R] = 46827704 {8:5853463,}
traffic_breakdown_coretomem[GLOBAL_ATOMIC] = 52784600 {40:1319615,}
traffic_breakdown_memtocore[GLOBAL_ACC_R] = 234138520 {40:5853463,}
traffic_breakdown_memtocore[GLOBAL_ATOMIC] = 52784600 {40:1319615,}
maxmflatency = 2855 
max_icnt2mem_latency = 749 
maxmrqlatency = 2424 
max_icnt2sh_latency = 198 
averagemflatency = 546 
avg_icnt2mem_latency = 43 
avg_mrq_latency = 115 
avg_icnt2sh_latency = 3 
mrq_lat_table:718938 	103233 	156002 	305586 	600444 	909026 	1124695 	1042178 	689873 	102258 	2699 	6 	0 	0 	0 	0 	0 	0 	0 	0 	0 	0 	0 	0 	0 	0 	0 	0 	0 	0 	0 	0 	
dq_lat_table:0 	0 	0 	0 	0 	0 	0 	0 	0 	0 	0 	0 	0 	0 	0 	0 	0 	0 	0 	0 	0 	0 	0 	0 	0 	0 	0 	0 	0 	0 	0 	0 	
mf_lat_table:0 	0 	0 	0 	0 	0 	0 	1388623 	1793578 	3769655 	221014 	208 	0 	0 	0 	0 	0 	0 	0 	0 	0 	0 	0 	0 	0 	0 	0 	0 	0 	0 	0 	0 	
icnt2mem_lat_table:0 	708867 	333391 	185397 	68371 	4894490 	921426 	41698 	18698 	740 	0 	0 	0 	0 	0 	0 	0 	0 	0 	0 	0 	0 	0 	0 	
icnt2sh_lat_table:0 	6177025 	738563 	179501 	49017 	18403 	10243 	326 	0 	0 	0 	0 	0 	0 	0 	0 	0 	0 	0 	0 	0 	0 	0 	0 	
mf_lat_pw_table:0 	0 	0 	0 	0 	0 	0 	0 	265 	647 	0 	0 	0 	0 	0 	0 	0 	0 	0 	0 	0 	0 	0 	0 	0 	0 	0 	0 	0 	0 	0 	0 	
maximum concurrent accesses to same row:
dram[0]:        64        64        64        64        64        64        64        64        64        64        64        64        64        64        64        64 
dram[1]:        64        64        64        64        64        64        64        64        64        64        64        64        64        64        64        64 
dram[2]:        64        64        64        64        64        64        64        64        64        64        64        64        64        64        64        64 
dram[3]:        64        64        64        64        64        64        64        64        64        64        64        64        64        64        64        64 
dram[4]:        64        64        64        64        64        64        64        64        64        64        64        64        64        64        64        64 
dram[5]:        64        64        64        64        64        64        64        64        64        64        64        64        64        64        64        64 
dram[6]:        64        64        64        64        64        64        64        64        64        64        64        64        64        64        64        64 
dram[7]:        64        64        64        64        64        64        64        64        64        64        64        64        64        64        64        64 
dram[8]:        64        64        64        64        64        64        64        64        64        64        64        64        64        64        64        64 
dram[9]:        64        64        64        64        64        64        64        64        64        64        64        64        64        64        64        64 
dram[10]:        64        64        64        64        64        64        64        64        64        64        64        64        64        64        64        64 
dram[11]:        64        64        64        64        64        64        64        64        64        64        64        64        64        64        64        64 
maximum service time to same row:
dram[0]:      7063      7063      7339      7336      5746      5745      5751      5751      5804      5802      6027      6033      6064      6080      6309      6317 
dram[1]:      7011      7008      7288      7361      5734      5703      5739      5708      5836      5847      5987      5986      6038      6050      6283      6283 
dram[2]:      6950      6986      7289      7292      5611      5580      5616      5585      5806      5806      5989      5964      6028      5984      6199      6184 
dram[3]:      6933      6981      7239      7301      5641      5642      5647      5648      5807      5806      5954      5915      6005      5976      6085      6297 
dram[4]:      7046      7030      7384      7403      5746      5745      5752      5751      5804      5804      6027      6034      6047      6073      6292      6298 
dram[5]:      7014      7043      7329      7337      5734      5703      5740      5709      5838      5848      5987      5986      6038      6047      6270      6270 
dram[6]:      6983      6964      7293      7278      5611      5580      5617      5586      5805      5805      5998      5968      6107      6068      6146      6088 
dram[7]:      6913      6934      7246      7281      5641      5642      5647      5647      5806      5806      5966      5912      6061      6182      6071      6225 
dram[8]:      6999      7008      7342      7342      5746      5745      5751      5751      5804      5802      6028      6038      6203      6211      6245      6251 
dram[9]:      7023      6989      7303      7322      5734      5703      5739      5708      5836      5847      5990      5989      6186      6160      6226      6227 
dram[10]:      6936      6982      7267      7294      5611      5580      5616      5585      5806      5804      5987      5965      6047      6008      6153      6121 
dram[11]:      6935      6981      7246      7277      5641      5641      5646      5647      5806      5806      5958      5912      6016      5993      6085      6267 
average row accesses per activate:
dram[0]:  6.947356  7.036184  6.932176  7.132920  6.732540  6.861181  6.867826  7.218599  6.727273  7.076941  6.891068  7.413854  6.760045  6.885081  6.846242  7.173234 
dram[1]:  7.042739  7.013834  7.006801  7.250243  6.732410  6.790315  6.770580  6.999300  6.709844  6.972313  6.793409  6.955220  6.578166  6.883753  6.980841  7.030993 
dram[2]:  7.007036  7.235151  7.183708  7.092808  6.786232  6.819850  6.764321  7.036308  6.761164  6.999066  6.778962  7.013343  6.507556  7.146132  6.745740  6.993478 
dram[3]:  6.901613  7.129325  6.894992  7.027369  6.804313  7.041755  6.909868  7.032794  6.588519  6.991614  6.708529  7.035294  6.657784  7.061244  6.896083  7.088542 
dram[4]:  6.875659  7.044695  6.867842  6.990461  6.923878  6.929691  6.853513  7.123369  6.956116  7.115156  6.760108  7.038471  6.915548  7.049682  6.945683  7.111349 
dram[5]:  6.831287  6.946713  6.957792  7.081642  6.731313  6.863346  6.706027  7.068096  7.033435  6.985061  6.660226  7.133333  6.775316  7.174736  6.865719  6.942468 
dram[6]:  6.705607  6.928654  6.918131  7.083136  6.782324  6.891942  6.810909  7.062147  6.706054  7.017606  6.850195  7.146377  6.742819  7.001864  6.852234  7.158813 
dram[7]:  6.720749  7.084477  6.767583  6.913444  6.842981  6.988123  6.788344  6.790719  6.803089  7.105600  6.896838  7.070366  6.913526  6.963987  6.923701  7.388407 
dram[8]:  6.864883  7.147839  6.746855  7.045113  6.796108  6.741495  6.705094  6.860820  6.855901  7.158134  6.809968  7.038579  6.750450  6.807466  6.896209  7.143987 
dram[9]:  6.866283  7.038525  6.942348  6.995343  6.628936  6.651445  6.753492  7.046934  6.721848  7.014349  6.739287  7.197974  6.669703  6.975191  6.732855  7.020595 
dram[10]:  6.927792  6.902765  6.731631  7.027452  6.675975  6.997433  6.790545  7.144495  6.745389  7.129709  6.888427  6.993458  6.573275  7.021790  6.901269  6.800361 
dram[11]:  6.921374  6.948451  7.017614  7.023185  6.800634  6.875514  6.760208  7.102041  6.677936  6.875114  6.694420  6.984587  6.575011  6.840837  6.834094  6.812486 
average row locality = 5754938/832587 = 6.912116
number of total memory accesses made:
dram[0]:         0         0         0         0         0         0         0         0         0         0         0         0         0         0         0         0 
dram[1]:         0         0         0         0         0         0         0         0         0         0         0         0         0         0         0         0 
dram[2]:         0         0         0         0         0         0         0         0         0         0         0         0         0         0         0         0 
dram[3]:         0         0         0         0         0         0         0         0         0         0         0         0         0         0         0         0 
dram[4]:         0         0         0         0         0         0         0         0         0         0         0         0         0         0         0         0 
dram[5]:         0         0         0         0         0         0         0         0         0         0         0         0         0         0         0         0 
dram[6]:         0         0         0         0         0         0         0         0         0         0         0         0         0         0         0         0 
dram[7]:         0         0         0         0         0         0         0         0         0         0         0         0         0         0         0         0 
dram[8]:         0         0         0         0         0         0         0         0         0         0         0         0         0         0         0         0 
dram[9]:         0         0         0         0         0         0         0         0         0         0         0         0         0         0         0         0 
dram[10]:         0         0         0         0         0         0         0         0         0         0         0         0         0         0         0         0 
dram[11]:         0         0         0         0         0         0         0         0         0         0         0         0         0         0         0         0 
total accesses: 0
min_bank_accesses = 0!
min_chip_accesses = 0!
number of total read accesses:
dram[0]:     28716     28702     28706     28703     28747     28865     28800     28651     28807     28840     28611     28400     28700     28890     28719     28611 
dram[1]:     28581     28670     28633     28632     28903     28916     28867     28766     28755     28732     28643     28729     28881     28835     28630     28698 
dram[2]:     28632     28599     28479     28643     28732     28860     28762     28804     28742     28727     28654     28714     28898     28681     28839     28776 
dram[3]:     28708     28635     28633     28800     28740     28782     28668     28791     28834     28778     28719     28651     28732     28614     28682     28695 
dram[4]:     28724     28704     28744     28805     28691     28825     28712     28793     28562     28668     28679     28574     28641     28693     28676     28709 
dram[5]:     28800     28868     28760     28769     28754     28800     28811     28768     28633     28687     28744     28713     28726     28686     28717     28800 
dram[6]:     28887     28763     28675     28582     28772     28869     28735     28765     28671     28657     28614     28630     28797     28797     28664     28686 
dram[7]:     28910     28693     28781     28788     28792     28774     28819     28913     28715     28704     28636     28698     28653     28725     28609     28581 
dram[8]:     28781     28680     28794     28742     28797     28885     28780     28887     28735     28683     28676     28673     28779     28842     28588     28576 
dram[9]:     28593     28719     28743     28803     28867     28918     28740     28646     28727     28580     28635     28602     28780     28836     28795     28754 
dram[10]:     28595     28712     28808     28711     28889     28749     28787     28682     28752     28664     28574     28684     28760     28723     28673     28865 
dram[11]:     28773     28815     28642     28747     28778     28863     28736     28694     28786     28820     28744     28660     28907     28839     28699     28874 
total dram reads = 5516575
bank skew: 28918/28400 = 1.02
chip skew: 460377/459200 = 1.00
number of total write accesses:
dram[0]:      4961      4976      4964      4964      4932      4937      4932      4933      4948      4945      4992      4989      4988      4984      4982      4976 
dram[1]:      4977      4976      4973      4956      4952      4932      4940      4929      4952      4940      4992      4992      4988      4988      4986      4988 
dram[2]:      4981      4984      4960      4956      4944      4944      4924      4936      4948      4944      4992      4988      4980      4988      4988      4988 
dram[3]:      4980      4976      4972      4968      4932      4948      4924      4928      4944      4948      4992      4993      4992      4992      4985      4988 
dram[4]:      4982      4970      4964      4960      4936      4941      4924      4928      4952      4948      4992      4992      4986      4988      4981      4976 
dram[5]:      4976      4984      4968      4969      4936      4936      4928      4916      4952      4948      4988      4988      4992      4988      4980      4988 
dram[6]:      4992      4980      4953      4952      4932      4940      4932      4937      4952      4952      4984      4993      4993      4989      4984      4980 
dram[7]:      4984      4981      4957      4974      4940      4932      4932      4924      4956      4953      4992      4980      4992      4989      4984      4984 
dram[8]:      4984      4989      4972      4968      4940      4944      4928      4928      4953      4952      4988      4992      4988      4988      4977      4972 
dram[9]:      4964      4976      4964      4968      4937      4932      4928      4932      4956      4952      4988      4992      4988      4992      4988      4980 
dram[10]:      4972      4978      4968      4960      4932      4937      4933      4928      4952      4952      4984      4989      4988      4984      4973      4988 
dram[11]:      4980      4976      4953      4968      4954      4952      4928      4936      4952      4949      4988      4992      4984      4988      4992      4973 
total dram writes = 953310
bank skew: 4993/4916 = 1.02
chip skew: 79465/79403 = 1.00
average mf latency per bank:
dram[0]:        607       605       601       607       609       612       619       628       611       635       617       616       601       611       600       604
dram[1]:        598       603       587       596       593       603       600       622       611       627       609       620       598       611       596       605
dram[2]:        588       577       572       573       584       575       589       592       607       588       601       596       585       588       582       583
dram[3]:        581       601       570       602       575       599       585       610       589       626       592       628       578       611       574       599
dram[4]:        586       584       574       580       584       593       595       603       602       613       608       608       581       592       580       585
dram[5]:        592       605       589       592       593       599       599       611       611       616       604       619       592       604       593       597
dram[6]:        597       590       590       585       603       593       609       598       619       612       622       617       600       599       602       588
dram[7]:        580       599       560       598       572       605       578       615       587       618       595       629       580       603       570       605
dram[8]:        598       603       587       590       596       606       600       613       619       623       618       621       595       605       592       598
dram[9]:        610       633       605       627       604       630       612       638       622       646       627       658       613       644       612       628
dram[10]:        611       602       612       591       620       598       620       613       628       619       634       614       617       604       611       595
dram[11]:        619       649       607       651       613       658       616       674       621       670       628       670       619       662       610       656
maximum mf latency per bank:
dram[0]:       1867      2603      1927      1868      2085      1884      2384      1857      2111      2036      1793      1746      1800      2477      1687      1861
dram[1]:       2086      1832      1972      1911      2109      2145      2218      2085      1883      2144      1876      2114      2116      1718      2045      2038
dram[2]:       1865      2559      1891      1664      1951      2180      1700      1887      2173      1948      2062      1706      1972      1995      2240      1737
dram[3]:       1883      1617      1920      1925      1912      2033      1697      1802      2452      2079      1719      2434      1610      1858      1894      1596
dram[4]:       1884      1811      1756      1690      2028      2215      2180      1737      1733      2125      2675      1962      2123      2127      1955      1624
dram[5]:       2096      2651      1792      2111      1937      2788      1791      1910      1860      1606      2074      1748      1682      1752      1728      1859
dram[6]:       1791      1723      1973      1794      2073      1982      1805      2163      1908      2006      1889      1788      2027      1959      1618      1698
dram[7]:       2043      2124      1942      1854      2057      1674      1701      1939      1956      2064      1959      1555      1986      1741      1848      1584
dram[8]:       1848      1874      1939      2619      1967      2376      2433      2664      2180      1933      1696      2074      2855      1847      1698      1698
dram[9]:       2270      1760      2105      1783      2316      1876      1674      2298      1975      1831      1898      1687      2064      1680      1838      1811
dram[10]:       2076      1897      2235      1921      1892      1909      2565      2292      1801      1823      2125      2095      2247      2027      2206      2004
dram[11]:       2264      2308      1913      2081      2094      2263      2117      2160      1755      1894      1750      2262      2223      1996      1650      1815

Number of Memory Banks Accessed per Memory Operation per Warp (from 0):
0	0	0	0	0	0	0	0	0	0	0	0	0	0	0	0	0	0	0	0	0	0	0	0	0	0	0	0	0	0	0	0	0	0	0	0	0	0	0	0	0	0	0	0	0	0	0	0	0	0	0	0	0	0	0	0	0	0	0	0	0	0	0	0	0	0	0	0	0	0	0	0	0	0	0	0	0	0	0	0	0	0	0	0	0	0	0	0	0	0	0	0	0	0	0	0	0	0	0	0	0	0	0	0	0	0	0	0	0	0	0	0	0	0	0	0	0	0	0	0	0	0	0	0	0	0	0	0	0	0	0	0	0	0	0	0	0	0	0	0	0	0	0	0	0	0	0	0	0	0	0	0	0	0	0	0	0	0	0	0	0	0	0	0	0	0	0	0	0	0	0	0	0	0	0	0	0	0	0	0	0	0	0	0	0	0	0	0	0	0	0	0	
Average # of Memory Banks Accessed per Memory Operation per Warp=-nan

position of mrq chosen
0	0	0	0	0	0	0	0	0	0	0	0	0	0	0	0	0	0	0	0	0	0	0	0	0	0	0	0	0	0	0	0	0	0	0	0	0	0	0	0	0	0	0	0	0	0	0	0	0	0	0	0	0	0	0	0	0	0	0	0	0	0	0	0	

average position of mrq chosen = -nan
Memory Partition 0: 
Cache L2_bank_000:
MSHR contents

Cache L2_bank_001:
MSHR contents

In Dram Latency Queue (total = 0): 
DRAM[0]: 16 bks, busW=2 BL=16 CL=24, tRRD=12 tCCD=4, tRCD=24 tRAS=55 tRP=24 tRC=78
n_cmd=2352778 n_nop=1689569 n_act=68833 n_pre=68817 n_ref_event=0 n_req=479324 n_rd=459468 n_rd_L2_A=0 n_write=0 n_wr_bk=79403 bw_util=0.9161
n_activity=2334020 dram_eff=0.9235
bk0: 28716a 1097520i bk1: 28702a 1092772i bk2: 28706a 1102555i bk3: 28703a 1089955i bk4: 28747a 1095434i bk5: 28865a 1063137i bk6: 28800a 1098355i bk7: 28651a 1083467i bk8: 28807a 1117261i bk9: 28840a 1080514i bk10: 28611a 1138449i bk11: 28400a 1149358i bk12: 28700a 1097467i bk13: 28890a 1085887i bk14: 28719a 1124902i bk15: 28611a 1085466i 

------------------------------------------------------------------------

Row_Buffer_Locality = 0.856396
Row_Buffer_Locality_read = 0.873460
Row_Buffer_Locality_write = 0.461523
Bank_Level_Parallism = 8.789273
Bank_Level_Parallism_Col = 7.612430
Bank_Level_Parallism_Ready = 2.811245
write_to_read_ratio_blp_rw_average = 0.418380
GrpLevelPara = 3.741025 

BW Util details:
bwutil = 0.916144 
total_CMD = 2352778 
util_bw = 2155484 
Wasted_Col = 176182 
Wasted_Row = 1191 
Idle = 19921 

BW Util Bottlenecks: 
RCDc_limit = 136272 
RCDWRc_limit = 12139 
WTRc_limit = 295885 
RTWc_limit = 588905 
CCDLc_limit = 196167 
rwq = 0 
CCDLc_limit_alone = 111261 
WTRc_limit_alone = 274195 
RTWc_limit_alone = 525689 

Commands details: 
total_CMD = 2352778 
n_nop = 1689569 
Read = 459468 
Write = 0 
L2_Alloc = 0 
L2_WB = 79403 
n_act = 68833 
n_pre = 68817 
n_ref = 0 
n_req = 479324 
total_req = 538871 

Dual Bus Interface Util: 
issued_total_row = 137650 
issued_total_col = 538871 
Row_Bus_Util =  0.058505 
CoL_Bus_Util = 0.229036 
Either_Row_CoL_Bus_Util = 0.281883 
Issued_on_Two_Bus_Simul_Util = 0.005658 
issued_two_Eff = 0.020072 
queue_avg = 60.131512 


dram_util_bins: 0 0 0 0 0 0 0 0 0 0
dram_eff_bins: 0 0 0 0 0 0 0 0 0 0
mrqq: max=64 avg=60.1315
Memory Partition 1: 
Cache L2_bank_002:
MSHR contents

Cache L2_bank_003:
MSHR contents

In Dram Latency Queue (total = 0): 
DRAM[1]: 16 bks, busW=2 BL=16 CL=24, tRRD=12 tCCD=4, tRCD=24 tRAS=55 tRP=24 tRC=78
n_cmd=2352778 n_nop=1687893 n_act=69500 n_pre=69484 n_ref_event=0 n_req=479740 n_rd=459871 n_rd_L2_A=0 n_write=0 n_wr_bk=79461 bw_util=0.9169
n_activity=2334167 dram_eff=0.9242
bk0: 28581a 1096865i bk1: 28670a 1085257i bk2: 28633a 1106508i bk3: 28632a 1089166i bk4: 28903a 1114558i bk5: 28916a 1066075i bk6: 28867a 1119333i bk7: 28766a 1065257i bk8: 28755a 1128167i bk9: 28732a 1095186i bk10: 28643a 1152945i bk11: 28729a 1120066i bk12: 28881a 1105485i bk13: 28835a 1068271i bk14: 28630a 1106881i bk15: 28698a 1086233i 

------------------------------------------------------------------------

Row_Buffer_Locality = 0.855130
Row_Buffer_Locality_read = 0.872253
Row_Buffer_Locality_write = 0.458805
Bank_Level_Parallism = 8.785554
Bank_Level_Parallism_Col = 1.000000
Bank_Level_Parallism_Ready = 2.819067
write_to_read_ratio_blp_rw_average = 0.000000
GrpLevelPara = 0.000000 

BW Util details:
bwutil = 0.916928 
total_CMD = 2352778 
util_bw = 2157328 
Wasted_Col = 175036 
Wasted_Row = 942 
Idle = 19472 

BW Util Bottlenecks: 
RCDc_limit = 134767 
RCDWRc_limit = 12648 
WTRc_limit = 296034 
RTWc_limit = 587357 
CCDLc_limit = 192732 
rwq = 0 
CCDLc_limit_alone = 108048 
WTRc_limit_alone = 274134 
RTWc_limit_alone = 524573 

Commands details: 
total_CMD = 2352778 
n_nop = 1687893 
Read = 459871 
Write = 0 
L2_Alloc = 0 
L2_WB = 79461 
n_act = 69500 
n_pre = 69484 
n_ref = 0 
n_req = 479740 
total_req = 539332 

Dual Bus Interface Util: 
issued_total_row = 138984 
issued_total_col = 539332 
Row_Bus_Util =  0.059072 
CoL_Bus_Util = 0.229232 
Either_Row_CoL_Bus_Util = 0.282596 
Issued_on_Two_Bus_Simul_Util = 0.005709 
issued_two_Eff = 0.020200 
queue_avg = 60.123127 


dram_util_bins: 0 0 0 0 0 0 0 0 0 0
dram_eff_bins: 0 0 0 0 0 0 0 0 0 0
mrqq: max=64 avg=60.1231
Memory Partition 2: 
Cache L2_bank_004:
MSHR contents

Cache L2_bank_005:
MSHR contents

In Dram Latency Queue (total = 0): 
DRAM[2]: 16 bks, busW=2 BL=16 CL=24, tRRD=12 tCCD=4, tRCD=24 tRAS=55 tRP=24 tRC=78
n_cmd=2352778 n_nop=1688774 n_act=69242 n_pre=69226 n_ref_event=0 n_req=479404 n_rd=459542 n_rd_L2_A=0 n_write=0 n_wr_bk=79445 bw_util=0.9163
n_activity=2334208 dram_eff=0.9236
bk0: 28632a 1121422i bk1: 28599a 1102776i bk2: 28479a 1125152i bk3: 28643a 1064772i bk4: 28732a 1105994i bk5: 28860a 1092334i bk6: 28762a 1128920i bk7: 28804a 1086236i bk8: 28742a 1113092i bk9: 28727a 1132070i bk10: 28654a 1134750i bk11: 28714a 1130214i bk12: 28898a 1106689i bk13: 28681a 1099333i bk14: 28839a 1117351i bk15: 28776a 1068527i 

------------------------------------------------------------------------

Row_Buffer_Locality = 0.855567
Row_Buffer_Locality_read = 0.872658
Row_Buffer_Locality_write = 0.460125
Bank_Level_Parallism = 8.733275
Bank_Level_Parallism_Col = 7.548439
Bank_Level_Parallism_Ready = 2.798574
write_to_read_ratio_blp_rw_average = 0.414370
GrpLevelPara = 3.739227 

BW Util details:
bwutil = 0.916341 
total_CMD = 2352778 
util_bw = 2155948 
Wasted_Col = 176252 
Wasted_Row = 990 
Idle = 19588 

BW Util Bottlenecks: 
RCDc_limit = 137444 
RCDWRc_limit = 11990 
WTRc_limit = 295210 
RTWc_limit = 591924 
CCDLc_limit = 191937 
rwq = 0 
CCDLc_limit_alone = 108321 
WTRc_limit_alone = 274339 
RTWc_limit_alone = 529179 

Commands details: 
total_CMD = 2352778 
n_nop = 1688774 
Read = 459542 
Write = 0 
L2_Alloc = 0 
L2_WB = 79445 
n_act = 69242 
n_pre = 69226 
n_ref = 0 
n_req = 479404 
total_req = 538987 

Dual Bus Interface Util: 
issued_total_row = 138468 
issued_total_col = 538987 
Row_Bus_Util =  0.058853 
CoL_Bus_Util = 0.229085 
Either_Row_CoL_Bus_Util = 0.282221 
Issued_on_Two_Bus_Simul_Util = 0.005717 
issued_two_Eff = 0.020257 
queue_avg = 58.883556 


dram_util_bins: 0 0 0 0 0 0 0 0 0 0
dram_eff_bins: 0 0 0 0 0 0 0 0 0 0
mrqq: max=64 avg=58.8836
Memory Partition 3: 
Cache L2_bank_006:
MSHR contents

Cache L2_bank_007:
MSHR contents

In Dram Latency Queue (total = 0): 
DRAM[3]: 16 bks, busW=2 BL=16 CL=24, tRRD=12 tCCD=4, tRCD=24 tRAS=55 tRP=24 tRC=78
n_cmd=2352778 n_nop=1688623 n_act=69273 n_pre=69257 n_ref_event=0 n_req=479329 n_rd=459462 n_rd_L2_A=0 n_write=0 n_wr_bk=79462 bw_util=0.9162
n_activity=2334201 dram_eff=0.9235
bk0: 28708a 1092274i bk1: 28635a 1095617i bk2: 28633a 1112152i bk3: 28800a 1070307i bk4: 28740a 1106488i bk5: 28782a 1086736i bk6: 28668a 1130622i bk7: 28791a 1096008i bk8: 28834a 1113453i bk9: 28778a 1082800i bk10: 28719a 1127654i bk11: 28651a 1129518i bk12: 28732a 1112591i bk13: 28614a 1118218i bk14: 28682a 1126630i bk15: 28695a 1123326i 

------------------------------------------------------------------------

Row_Buffer_Locality = 0.855479
Row_Buffer_Locality_read = 0.872692
Row_Buffer_Locality_write = 0.457392
Bank_Level_Parallism = 8.736930
Bank_Level_Parallism_Col = 7.551297
Bank_Level_Parallism_Ready = 2.804881
write_to_read_ratio_blp_rw_average = 0.413603
GrpLevelPara = 3.736331 

BW Util details:
bwutil = 0.916234 
total_CMD = 2352778 
util_bw = 2155696 
Wasted_Col = 176228 
Wasted_Row = 1038 
Idle = 19816 

BW Util Bottlenecks: 
RCDc_limit = 135576 
RCDWRc_limit = 12173 
WTRc_limit = 301844 
RTWc_limit = 575399 
CCDLc_limit = 188341 
rwq = 0 
CCDLc_limit_alone = 107267 
WTRc_limit_alone = 280165 
RTWc_limit_alone = 516004 

Commands details: 
total_CMD = 2352778 
n_nop = 1688623 
Read = 459462 
Write = 0 
L2_Alloc = 0 
L2_WB = 79462 
n_act = 69273 
n_pre = 69257 
n_ref = 0 
n_req = 479329 
total_req = 538924 

Dual Bus Interface Util: 
issued_total_row = 138530 
issued_total_col = 538924 
Row_Bus_Util =  0.058879 
CoL_Bus_Util = 0.229059 
Either_Row_CoL_Bus_Util = 0.282285 
Issued_on_Two_Bus_Simul_Util = 0.005652 
issued_two_Eff = 0.020024 
queue_avg = 59.409000 


dram_util_bins: 0 0 0 0 0 0 0 0 0 0
dram_eff_bins: 0 0 0 0 0 0 0 0 0 0
mrqq: max=64 avg=59.409
Memory Partition 4: 
Cache L2_bank_008:
MSHR contents

Cache L2_bank_009:
MSHR contents

In Dram Latency Queue (total = 0): 
DRAM[4]: 16 bks, busW=2 BL=16 CL=24, tRRD=12 tCCD=4, tRCD=24 tRAS=55 tRP=24 tRC=78
n_cmd=2352778 n_nop=1689942 n_act=68758 n_pre=68742 n_ref_event=0 n_req=479060 n_rd=459200 n_rd_L2_A=0 n_write=0 n_wr_bk=79420 bw_util=0.9157
n_activity=2334194 dram_eff=0.923
bk0: 28724a 1111236i bk1: 28704a 1094041i bk2: 28744a 1110745i bk3: 28805a 1056835i bk4: 28691a 1101428i bk5: 28825a 1072492i bk6: 28712a 1109716i bk7: 28793a 1069564i bk8: 28562a 1146470i bk9: 28668a 1094220i bk10: 28679a 1113552i bk11: 28574a 1112658i bk12: 28641a 1126795i bk13: 28693a 1092314i bk14: 28676a 1111267i bk15: 28709a 1097172i 

------------------------------------------------------------------------

Row_Buffer_Locality = 0.856473
Row_Buffer_Locality_read = 0.873356
Row_Buffer_Locality_write = 0.466113
Bank_Level_Parallism = 8.780753
Bank_Level_Parallism_Col = 7.602991
Bank_Level_Parallism_Ready = 2.798219
write_to_read_ratio_blp_rw_average = 0.418418
GrpLevelPara = 3.735220 

BW Util details:
bwutil = 0.915717 
total_CMD = 2352778 
util_bw = 2154480 
Wasted_Col = 177324 
Wasted_Row = 1178 
Idle = 19796 

BW Util Bottlenecks: 
RCDc_limit = 139587 
RCDWRc_limit = 11911 
WTRc_limit = 291931 
RTWc_limit = 583617 
CCDLc_limit = 192737 
rwq = 0 
CCDLc_limit_alone = 108266 
WTRc_limit_alone = 270965 
RTWc_limit_alone = 520112 

Commands details: 
total_CMD = 2352778 
n_nop = 1689942 
Read = 459200 
Write = 0 
L2_Alloc = 0 
L2_WB = 79420 
n_act = 68758 
n_pre = 68742 
n_ref = 0 
n_req = 479060 
total_req = 538620 

Dual Bus Interface Util: 
issued_total_row = 137500 
issued_total_col = 538620 
Row_Bus_Util =  0.058442 
CoL_Bus_Util = 0.228929 
Either_Row_CoL_Bus_Util = 0.281725 
Issued_on_Two_Bus_Simul_Util = 0.005646 
issued_two_Eff = 0.020041 
queue_avg = 59.764252 


dram_util_bins: 0 0 0 0 0 0 0 0 0 0
dram_eff_bins: 0 0 0 0 0 0 0 0 0 0
mrqq: max=64 avg=59.7643
Memory Partition 5: 
Cache L2_bank_010:
MSHR contents

Cache L2_bank_011:
MSHR contents

In Dram Latency Queue (total = 0): 
DRAM[5]: 16 bks, busW=2 BL=16 CL=24, tRRD=12 tCCD=4, tRCD=24 tRAS=55 tRP=24 tRC=78
n_cmd=2352778 n_nop=1687875 n_act=69360 n_pre=69344 n_ref_event=0 n_req=479896 n_rd=460036 n_rd_L2_A=0 n_write=0 n_wr_bk=79437 bw_util=0.9172
n_activity=2334597 dram_eff=0.9243
bk0: 28800a 1087246i bk1: 28868a 1059155i bk2: 28760a 1091553i bk3: 28769a 1073258i bk4: 28754a 1099369i bk5: 28800a 1080257i bk6: 28811a 1108405i bk7: 28768a 1080781i bk8: 28633a 1134584i bk9: 28687a 1089860i bk10: 28744a 1119977i bk11: 28713a 1123654i bk12: 28726a 1120665i bk13: 28686a 1092563i bk14: 28717a 1113976i bk15: 28800a 1078009i 

------------------------------------------------------------------------

Row_Buffer_Locality = 0.855469
Row_Buffer_Locality_read = 0.872332
Row_Buffer_Locality_write = 0.464854
Bank_Level_Parallism = 8.809845
Bank_Level_Parallism_Col = 7.623065
Bank_Level_Parallism_Ready = 2.813348
write_to_read_ratio_blp_rw_average = 0.416511
GrpLevelPara = 3.746905 

BW Util details:
bwutil = 0.917168 
total_CMD = 2352778 
util_bw = 2157892 
Wasted_Col = 173838 
Wasted_Row = 1381 
Idle = 19667 

BW Util Bottlenecks: 
RCDc_limit = 133443 
RCDWRc_limit = 11878 
WTRc_limit = 292089 
RTWc_limit = 583834 
CCDLc_limit = 191310 
rwq = 0 
CCDLc_limit_alone = 108946 
WTRc_limit_alone = 271437 
RTWc_limit_alone = 522122 

Commands details: 
total_CMD = 2352778 
n_nop = 1687875 
Read = 460036 
Write = 0 
L2_Alloc = 0 
L2_WB = 79437 
n_act = 69360 
n_pre = 69344 
n_ref = 0 
n_req = 479896 
total_req = 539473 

Dual Bus Interface Util: 
issued_total_row = 138704 
issued_total_col = 539473 
Row_Bus_Util =  0.058953 
CoL_Bus_Util = 0.229292 
Either_Row_CoL_Bus_Util = 0.282603 
Issued_on_Two_Bus_Simul_Util = 0.005642 
issued_two_Eff = 0.019964 
queue_avg = 60.733150 


dram_util_bins: 0 0 0 0 0 0 0 0 0 0
dram_eff_bins: 0 0 0 0 0 0 0 0 0 0
mrqq: max=64 avg=60.7332
Memory Partition 6: 
Cache L2_bank_012:
MSHR contents

Cache L2_bank_013:
MSHR contents

In Dram Latency Queue (total = 0): 
DRAM[6]: 16 bks, busW=2 BL=16 CL=24, tRRD=12 tCCD=4, tRCD=24 tRAS=55 tRP=24 tRC=78
n_cmd=2352778 n_nop=1688689 n_act=69352 n_pre=69336 n_ref_event=0 n_req=479429 n_rd=459564 n_rd_L2_A=0 n_write=0 n_wr_bk=79445 bw_util=0.9164
n_activity=2333983 dram_eff=0.9238
bk0: 28887a 1078514i bk1: 28763a 1092586i bk2: 28675a 1098897i bk3: 28582a 1046382i bk4: 28772a 1096552i bk5: 28869a 1081995i bk6: 28735a 1110161i bk7: 28765a 1096501i bk8: 28671a 1092607i bk9: 28657a 1091622i bk10: 28614a 1135424i bk11: 28630a 1112239i bk12: 28797a 1099896i bk13: 28797a 1076785i bk14: 28664a 1088628i bk15: 28686a 1119053i 

------------------------------------------------------------------------

Row_Buffer_Locality = 0.855345
Row_Buffer_Locality_read = 0.872388
Row_Buffer_Locality_write = 0.461062
Bank_Level_Parallism = 8.825464
Bank_Level_Parallism_Col = 7.634060
Bank_Level_Parallism_Ready = 2.812132
write_to_read_ratio_blp_rw_average = 0.417499
GrpLevelPara = 3.739071 

BW Util details:
bwutil = 0.916379 
total_CMD = 2352778 
util_bw = 2156036 
Wasted_Col = 175970 
Wasted_Row = 872 
Idle = 19900 

BW Util Bottlenecks: 
RCDc_limit = 138593 
RCDWRc_limit = 12360 
WTRc_limit = 297432 
RTWc_limit = 591453 
CCDLc_limit = 191760 
rwq = 0 
CCDLc_limit_alone = 108284 
WTRc_limit_alone = 276028 
RTWc_limit_alone = 529381 

Commands details: 
total_CMD = 2352778 
n_nop = 1688689 
Read = 459564 
Write = 0 
L2_Alloc = 0 
L2_WB = 79445 
n_act = 69352 
n_pre = 69336 
n_ref = 0 
n_req = 479429 
total_req = 539009 

Dual Bus Interface Util: 
issued_total_row = 138688 
issued_total_col = 539009 
Row_Bus_Util =  0.058946 
CoL_Bus_Util = 0.229095 
Either_Row_CoL_Bus_Util = 0.282257 
Issued_on_Two_Bus_Simul_Util = 0.005784 
issued_two_Eff = 0.020491 
queue_avg = 60.090988 


dram_util_bins: 0 0 0 0 0 0 0 0 0 0
dram_eff_bins: 0 0 0 0 0 0 0 0 0 0
mrqq: max=64 avg=60.091
Memory Partition 7: 
Cache L2_bank_014:
MSHR contents

Cache L2_bank_015:
MSHR contents

In Dram Latency Queue (total = 0): 
DRAM[7]: 16 bks, busW=2 BL=16 CL=24, tRRD=12 tCCD=4, tRCD=24 tRAS=55 tRP=24 tRC=78
n_cmd=2352778 n_nop=1688833 n_act=69204 n_pre=69188 n_ref_event=0 n_req=479658 n_rd=459791 n_rd_L2_A=0 n_write=0 n_wr_bk=79454 bw_util=0.9168
n_activity=2334732 dram_eff=0.9239
[...]
Bank_Level_Parallism = 6.023255
Bank_Level_Parallism_Col = 4.831420
Bank_Level_Parallism_Ready = 2.044972
write_to_read_ratio_blp_rw_average = 0.324335
GrpLevelPara = 2.834634 

BW Util details:
bwutil = 0.710936 
total_CMD = 8844047 
util_bw = 6287552 
Wasted_Col = 1776477 
Wasted_Row = 255464 
Idle = 524554 

BW Util Bottlenecks: 
RCDc_limit = 1531452 
RCDWRc_limit = 203929 
WTRc_limit = 1435628 
RTWc_limit = 2033074 
CCDLc_limit = 894143 
rwq = 0 
CCDLc_limit_alone = 631473 
WTRc_limit_alone = 1347975 
RTWc_limit_alone = 1858057 

Commands details: 
total_CMD = 8844047 
n_nop = 6789725 
Read = 1310778 
Write = 0 
L2_Alloc = 0 
L2_WB = 261110 
n_act = 262423 
n_pre = 262407 
n_ref = 0 
n_req = 1385077 
total_req = 1571888 

Dual Bus Interface Util: 
issued_total_row = 524830 
issued_total_col = 1571888 
Row_Bus_Util =  0.059343 
CoL_Bus_Util = 0.177734 
Either_Row_CoL_Bus_Util = 0.232283 
Issued_on_Two_Bus_Simul_Util = 0.004794 
issued_two_Eff = 0.020637 
queue_avg = 25.093613 


dram_util_bins: 0 0 0 0 0 0 0 0 0 0
dram_eff_bins: 0 0 0 0 0 0 0 0 0 0
mrqq: max=64 avg=25.0936
Memory Partition 7: 
Cache L2_bank_014:
MSHR contents

Cache L2_bank_015:
MSHR contents

In Dram Latency Queue (total = 0): 
DRAM[7]: 16 bks, busW=2 BL=16 CL=24, tRRD=12 tCCD=4, tRCD=24 tRAS=55 tRP=24 tRC=78
n_cmd=8844047 n_nop=6798075 n_act=259284 n_pre=259268 n_ref_event=0 n_req=1383105 n_rd=1308794 n_rd_L2_A=0 n_write=0 n_wr_bk=261094 bw_util=0.71
n_activity=8536233 dram_eff=0.7356
bk0: 82472a 5840900i bk1: 81847a 5818218i bk2: 81939a 5854373i bk3: 82021a 5787358i bk4: 81727a 5847564i bk5: 81806a 5792910i bk6: 81833a 5838559i bk7: 82216a 5782138i bk8: 81568a 5885419i bk9: 81464a 5815002i bk10: 81667a 5885313i bk11: 81403a 5867269i bk12: 81907a 5828827i bk13: 81737a 5827442i bk14: 81751a 5869903i bk15: 81436a 5844718i 

------------------------------------------------------------------------

Row_Buffer_Locality = 0.812535
Row_Buffer_Locality_read = 0.842434
Row_Buffer_Locality_write = 0.285933
Bank_Level_Parallism = 5.990644
Bank_Level_Parallism_Col = 4.821878
Bank_Level_Parallism_Ready = 2.050221
write_to_read_ratio_blp_rw_average = 0.323611
GrpLevelPara = 2.826443 

BW Util details:
bwutil = 0.710032 
total_CMD = 8844047 
util_bw = 6279552 
Wasted_Col = 1772843 
Wasted_Row = 258464 
Idle = 533188 

BW Util Bottlenecks: 
RCDc_limit = 1509526 
RCDWRc_limit = 205515 
WTRc_limit = 1412689 
RTWc_limit = 2020471 
CCDLc_limit = 897925 
rwq = 0 
CCDLc_limit_alone = 635090 
WTRc_limit_alone = 1325172 
RTWc_limit_alone = 1845153 

Commands details: 
total_CMD = 8844047 
n_nop = 6798075 
Read = 1308794 
Write = 0 
L2_Alloc = 0 
L2_WB = 261094 
n_act = 259284 
n_pre = 259268 
n_ref = 0 
n_req = 1383105 
total_req = 1569888 

Dual Bus Interface Util: 
issued_total_row = 518552 
issued_total_col = 1569888 
Row_Bus_Util =  0.058633 
CoL_Bus_Util = 0.177508 
Either_Row_CoL_Bus_Util = 0.231339 
Issued_on_Two_Bus_Simul_Util = 0.004802 
issued_two_Eff = 0.020757 
queue_avg = 24.991039 


dram_util_bins: 0 0 0 0 0 0 0 0 0 0
dram_eff_bins: 0 0 0 0 0 0 0 0 0 0
mrqq: max=64 avg=24.991
Memory Partition 8: 
Cache L2_bank_016:
MSHR contents

Cache L2_bank_017:
MSHR contents

In Dram Latency Queue (total = 0): 
DRAM[8]: 16 bks, busW=2 BL=16 CL=24, tRRD=12 tCCD=4, tRCD=24 tRAS=55 tRP=24 tRC=78
n_cmd=8844047 n_nop=6790176 n_act=262125 n_pre=262109 n_ref_event=0 n_req=1385512 n_rd=1311198 n_rd_L2_A=0 n_write=0 n_wr_bk=261211 bw_util=0.7112
n_activity=8542046 dram_eff=0.7363
bk0: 81820a 5860653i bk1: 81621a 5828480i bk2: 82237a 5824200i bk3: 81994a 5799046i bk4: 82115a 5808739i bk5: 82500a 5715307i bk6: 81711a 5857415i bk7: 82108a 5770206i bk8: 81652a 5858707i bk9: 81363a 5860536i bk10: 82033a 5838939i bk11: 81865a 5827688i bk12: 82264a 5832877i bk13: 82537a 5736836i bk14: 81500a 5849726i bk15: 81878a 5810002i 

------------------------------------------------------------------------

Row_Buffer_Locality = 0.810810
Row_Buffer_Locality_read = 0.840578
Row_Buffer_Locality_write = 0.285585
Bank_Level_Parallism = 6.010653
Bank_Level_Parallism_Col = 4.819264
Bank_Level_Parallism_Ready = 2.046759
write_to_read_ratio_blp_rw_average = 0.322734
GrpLevelPara = 2.828377 

BW Util details:
bwutil = 0.711172 
total_CMD = 8844047 
util_bw = 6289636 
Wasted_Col = 1781388 
Wasted_Row = 257571 
Idle = 515452 

BW Util Bottlenecks: 
RCDc_limit = 1525018 
RCDWRc_limit = 203233 
WTRc_limit = 1418733 
RTWc_limit = 2008287 
CCDLc_limit = 901105 
rwq = 0 
CCDLc_limit_alone = 642591 
WTRc_limit_alone = 1332089 
RTWc_limit_alone = 1836417 

Commands details: 
total_CMD = 8844047 
n_nop = 6790176 
Read = 1311198 
Write = 0 
L2_Alloc = 0 
L2_WB = 261211 
n_act = 262125 
n_pre = 262109 
n_ref = 0 
n_req = 1385512 
total_req = 1572409 

Dual Bus Interface Util: 
issued_total_row = 524234 
issued_total_col = 1572409 
Row_Bus_Util =  0.059275 
CoL_Bus_Util = 0.177793 
Either_Row_CoL_Bus_Util = 0.232232 
Issued_on_Two_Bus_Simul_Util = 0.004836 
issued_two_Eff = 0.020825 
queue_avg = 25.251034 


dram_util_bins: 0 0 0 0 0 0 0 0 0 0
dram_eff_bins: 0 0 0 0 0 0 0 0 0 0
mrqq: max=64 avg=25.251
Memory Partition 9: 
Cache L2_bank_018:
MSHR contents

Cache L2_bank_019:
MSHR contents

In Dram Latency Queue (total = 0): 
DRAM[9]: 16 bks, busW=2 BL=16 CL=24, tRRD=12 tCCD=4, tRCD=24 tRAS=55 tRP=24 tRC=78
n_cmd=8844047 n_nop=6789904 n_act=262362 n_pre=262346 n_ref_event=0 n_req=1385694 n_rd=1311312 n_rd_L2_A=0 n_write=0 n_wr_bk=261327 bw_util=0.7113
n_activity=8546629 dram_eff=0.736
bk0: 81613a 5865544i bk1: 81879a 5817065i bk2: 81650a 5860531i bk3: 82088a 5796810i bk4: 82469a 5772779i bk5: 83012a 5667594i bk6: 81965a 5831596i bk7: 81385a 5841843i bk8: 82014a 5813023i bk9: 81324a 5842405i bk10: 81560a 5886665i bk11: 81568a 5840759i bk12: 82544a 5758551i bk13: 82196a 5739794i bk14: 82374a 5819606i bk15: 81671a 5838570i 

------------------------------------------------------------------------

Row_Buffer_Locality = 0.810664
Row_Buffer_Locality_read = 0.840600
Row_Buffer_Locality_write = 0.282904
Bank_Level_Parallism = 6.020692
Bank_Level_Parallism_Col = 4.821076
Bank_Level_Parallism_Ready = 2.047664
write_to_read_ratio_blp_rw_average = 0.324066
GrpLevelPara = 2.827151 

BW Util details:
bwutil = 0.711276 
total_CMD = 8844047 
util_bw = 6290556 
Wasted_Col = 1783626 
Wasted_Row = 257405 
Idle = 512460 

BW Util Bottlenecks: 
RCDc_limit = 1518703 
RCDWRc_limit = 203769 
WTRc_limit = 1413371 
RTWc_limit = 2027507 
CCDLc_limit = 900136 
rwq = 0 
CCDLc_limit_alone = 640730 
WTRc_limit_alone = 1326610 
RTWc_limit_alone = 1854862 

Commands details: 
total_CMD = 8844047 
n_nop = 6789904 
Read = 1311312 
Write = 0 
L2_Alloc = 0 
L2_WB = 261327 
n_act = 262362 
n_pre = 262346 
n_ref = 0 
n_req = 1385694 
total_req = 1572639 

Dual Bus Interface Util: 
issued_total_row = 524708 
issued_total_col = 1572639 
Row_Bus_Util =  0.059329 
CoL_Bus_Util = 0.177819 
Either_Row_CoL_Bus_Util = 0.232263 
Issued_on_Two_Bus_Simul_Util = 0.004885 
issued_two_Eff = 0.021033 
queue_avg = 25.437557 


dram_util_bins: 0 0 0 0 0 0 0 0 0 0
dram_eff_bins: 0 0 0 0 0 0 0 0 0 0
mrqq: max=64 avg=25.4376
Memory Partition 10: 
Cache L2_bank_020:
MSHR contents

Cache L2_bank_021:
MSHR contents

In Dram Latency Queue (total = 0): 
DRAM[10]: 16 bks, busW=2 BL=16 CL=24, tRRD=12 tCCD=4, tRCD=24 tRAS=55 tRP=24 tRC=78
n_cmd=8844047 n_nop=6790873 n_act=262113 n_pre=262097 n_ref_event=0 n_req=1384709 n_rd=1310494 n_rd_L2_A=0 n_write=0 n_wr_bk=260973 bw_util=0.7107
n_activity=8537694 dram_eff=0.7362
bk0: 81452a 5896342i bk1: 81702a 5788441i bk2: 81977a 5864580i bk3: 81738a 5861163i bk4: 82604a 5782817i bk5: 81632a 5834935i bk6: 81984a 5864476i bk7: 81311a 5866748i bk8: 82109a 5849081i bk9: 81685a 5852768i bk10: 81920a 5848827i bk11: 81894a 5830793i bk12: 82303a 5771481i bk13: 81992a 5792518i bk14: 81833a 5862710i bk15: 82358a 5774620i 

------------------------------------------------------------------------

Row_Buffer_Locality = 0.810709
Row_Buffer_Locality_read = 0.840617
Row_Buffer_Locality_write = 0.282598
Bank_Level_Parallism = 5.986449
Bank_Level_Parallism_Col = 4.803416
Bank_Level_Parallism_Ready = 2.044082
write_to_read_ratio_blp_rw_average = 0.323463
GrpLevelPara = 2.828200 

BW Util details:
bwutil = 0.710746 
total_CMD = 8844047 
util_bw = 6285868 
Wasted_Col = 1779220 
Wasted_Row = 255907 
Idle = 523052 

BW Util Bottlenecks: 
RCDc_limit = 1522254 
RCDWRc_limit = 204928 
WTRc_limit = 1430094 
RTWc_limit = 2006197 
CCDLc_limit = 890010 
rwq = 0 
CCDLc_limit_alone = 633234 
WTRc_limit_alone = 1342088 
RTWc_limit_alone = 1837427 

Commands details: 
total_CMD = 8844047 
n_nop = 6790873 
Read = 1310494 
Write = 0 
L2_Alloc = 0 
L2_WB = 260973 
n_act = 262113 
n_pre = 262097 
n_ref = 0 
n_req = 1384709 
total_req = 1571467 

Dual Bus Interface Util: 
issued_total_row = 524210 
issued_total_col = 1571467 
Row_Bus_Util =  0.059273 
CoL_Bus_Util = 0.177686 
Either_Row_CoL_Bus_Util = 0.232153 
Issued_on_Two_Bus_Simul_Util = 0.004806 
issued_two_Eff = 0.020701 
queue_avg = 24.906906 


dram_util_bins: 0 0 0 0 0 0 0 0 0 0
dram_eff_bins: 0 0 0 0 0 0 0 0 0 0
mrqq: max=64 avg=24.9069
Memory Partition 11: 
Cache L2_bank_022:
MSHR contents

Cache L2_bank_023:
MSHR contents

In Dram Latency Queue (total = 0): 
DRAM[11]: 16 bks, busW=2 BL=16 CL=24, tRRD=12 tCCD=4, tRCD=24 tRAS=55 tRP=24 tRC=78
n_cmd=8844047 n_nop=6782694 n_act=264785 n_pre=264769 n_ref_event=0 n_req=1388429 n_rd=1314059 n_rd_L2_A=0 n_write=0 n_wr_bk=261251 bw_util=0.7125
n_activity=8539559 dram_eff=0.7379
bk0: 82299a 5831502i bk1: 82030a 5798376i bk2: 81826a 5817485i bk3: 82283a 5763066i bk4: 82174a 5769919i bk5: 82167a 5733415i bk6: 81731a 5835023i bk7: 81676a 5810080i bk8: 81974a 5817251i bk9: 81922a 5792153i bk10: 81942a 5821379i bk11: 81971a 5786936i bk12: 83026a 5721058i bk13: 82864a 5691655i bk14: 81978a 5870498i bk15: 82196a 5800507i 

------------------------------------------------------------------------

Row_Buffer_Locality = 0.809292
Row_Buffer_Locality_read = 0.839099
Row_Buffer_Locality_write = 0.282614
Bank_Level_Parallism = 6.066850
Bank_Level_Parallism_Col = 4.854145
Bank_Level_Parallism_Ready = 2.051512
write_to_read_ratio_blp_rw_average = 0.323366
GrpLevelPara = 2.842483 

BW Util details:
bwutil = 0.712484 
total_CMD = 8844047 
util_bw = 6301240 
Wasted_Col = 1770058 
Wasted_Row = 253534 
Idle = 519215 

BW Util Bottlenecks: 
RCDc_limit = 1536789 
RCDWRc_limit = 200788 
WTRc_limit = 1428957 
RTWc_limit = 2027416 
CCDLc_limit = 894550 
rwq = 0 
CCDLc_limit_alone = 635065 
WTRc_limit_alone = 1341530 
RTWc_limit_alone = 1855358 

Commands details: 
total_CMD = 8844047 
n_nop = 6782694 
Read = 1314059 
Write = 0 
L2_Alloc = 0 
L2_WB = 261251 
n_act = 264785 
n_pre = 264769 
n_ref = 0 
n_req = 1388429 
total_req = 1575310 

Dual Bus Interface Util: 
issued_total_row = 529554 
issued_total_col = 1575310 
Row_Bus_Util =  0.059877 
CoL_Bus_Util = 0.178121 
Either_Row_CoL_Bus_Util = 0.233078 
Issued_on_Two_Bus_Simul_Util = 0.004920 
issued_two_Eff = 0.021108 
queue_avg = 25.585037 


dram_util_bins: 0 0 0 0 0 0 0 0 0 0
dram_eff_bins: 0 0 0 0 0 0 0 0 0 0
mrqq: max=64 avg=25.585

========= L2 cache stats =========
L2_cache_bank[0]: Access = 1058230, Miss = 654482, Miss_rate = 0.618, Pending_hits = 14427, Reservation_fails = 3737
L2_cache_bank[1]: Access = 1068296, Miss = 654702, Miss_rate = 0.613, Pending_hits = 7841, Reservation_fails = 4277
L2_cache_bank[2]: Access = 1062756, Miss = 653363, Miss_rate = 0.615, Pending_hits = 7500, Reservation_fails = 6301
L2_cache_bank[3]: Access = 1064821, Miss = 654964, Miss_rate = 0.615, Pending_hits = 7537, Reservation_fails = 2925
L2_cache_bank[4]: Access = 1085664, Miss = 654921, Miss_rate = 0.603, Pending_hits = 26744, Reservation_fails = 4114
L2_cache_bank[5]: Access = 1066640, Miss = 653958, Miss_rate = 0.613, Pending_hits = 8167, Reservation_fails = 3214
L2_cache_bank[6]: Access = 1071928, Miss = 654344, Miss_rate = 0.610, Pending_hits = 8720, Reservation_fails = 2627
L2_cache_bank[7]: Access = 1097700, Miss = 655226, Miss_rate = 0.597, Pending_hits = 17453, Reservation_fails = 1729
L2_cache_bank[8]: Access = 1058681, Miss = 654350, Miss_rate = 0.618, Pending_hits = 14473, Reservation_fails = 5772
L2_cache_bank[9]: Access = 1065147, Miss = 653495, Miss_rate = 0.614, Pending_hits = 7639, Reservation_fails = 4981
L2_cache_bank[10]: Access = 1070808, Miss = 656148, Miss_rate = 0.613, Pending_hits = 7883, Reservation_fails = 4573
L2_cache_bank[11]: Access = 1062259, Miss = 655421, Miss_rate = 0.617, Pending_hits = 7804, Reservation_fails = 3867
L2_cache_bank[12]: Access = 1095310, Miss = 656251, Miss_rate = 0.599, Pending_hits = 27139, Reservation_fails = 5081
L2_cache_bank[13]: Access = 1068021, Miss = 654527, Miss_rate = 0.613, Pending_hits = 8404, Reservation_fails = 5236
L2_cache_bank[14]: Access = 1070798, Miss = 654864, Miss_rate = 0.612, Pending_hits = 9006, Reservation_fails = 5333
L2_cache_bank[15]: Access = 1094605, Miss = 653930, Miss_rate = 0.597, Pending_hits = 17819, Reservation_fails = 2359
L2_cache_bank[16]: Access = 1060171, Miss = 655332, Miss_rate = 0.618, Pending_hits = 14406, Reservation_fails = 3654
L2_cache_bank[17]: Access = 1070237, Miss = 655866, Miss_rate = 0.613, Pending_hits = 8032, Reservation_fails = 3356
L2_cache_bank[18]: Access = 1067560, Miss = 656189, Miss_rate = 0.615, Pending_hits = 7809, Reservation_fails = 4367
L2_cache_bank[19]: Access = 1061429, Miss = 655123, Miss_rate = 0.617, Pending_hits = 8074, Reservation_fails = 4589
L2_cache_bank[20]: Access = 1091944, Miss = 656182, Miss_rate = 0.601, Pending_hits = 26909, Reservation_fails = 4327
L2_cache_bank[21]: Access = 1067720, Miss = 654312, Miss_rate = 0.613, Pending_hits = 8156, Reservation_fails = 1801
L2_cache_bank[22]: Access = 1079523, Miss = 656950, Miss_rate = 0.609, Pending_hits = 9326, Reservation_fails = 4634
L2_cache_bank[23]: Access = 1101340, Miss = 657109, Miss_rate = 0.597, Pending_hits = 18514, Reservation_fails = 5375
L2_total_cache_accesses = 25761588
L2_total_cache_misses = 15722009
L2_total_cache_miss_rate = 0.6103
L2_total_cache_pending_hits = 299782
L2_total_cache_reservation_fails = 98229
L2_total_cache_breakdown:
	L2_cache_stats_breakdown[GLOBAL_ACC_R][HIT] = 3920986
	L2_cache_stats_breakdown[GLOBAL_ACC_R][HIT_RESERVED] = 299782
	L2_cache_stats_breakdown[GLOBAL_ACC_R][MISS] = 4972268
	L2_cache_stats_breakdown[GLOBAL_ACC_R][RESERVATION_FAIL] = 98229
	L2_cache_stats_breakdown[GLOBAL_ACC_R][SECTOR_MISS] = 10749741
	L2_cache_stats_breakdown[GLOBAL_ACC_R][MSHR_HIT] = 299782
	L2_cache_stats_breakdown[LOCAL_ACC_R][HIT] = 0
	L2_cache_stats_breakdown[LOCAL_ACC_R][HIT_RESERVED] = 0
	L2_cache_stats_breakdown[LOCAL_ACC_R][MISS] = 0
	L2_cache_stats_breakdown[LOCAL_ACC_R][RESERVATION_FAIL] = 0
	L2_cache_stats_breakdown[LOCAL_ACC_R][SECTOR_MISS] = 0
	L2_cache_stats_breakdown[LOCAL_ACC_R][MSHR_HIT] = 0
	L2_cache_stats_breakdown[CONST_ACC_R][HIT] = 0
	L2_cache_stats_breakdown[CONST_ACC_R][HIT_RESERVED] = 0
	L2_cache_stats_breakdown[CONST_ACC_R][MISS] = 0
	L2_cache_stats_breakdown[CONST_ACC_R][RESERVATION_FAIL] = 0
	L2_cache_stats_breakdown[CONST_ACC_R][SECTOR_MISS] = 0
	L2_cache_stats_breakdown[CONST_ACC_R][MSHR_HIT] = 0
	L2_cache_stats_breakdown[TEXTURE_ACC_R][HIT] = 0
	L2_cache_stats_breakdown[TEXTURE_ACC_R][HIT_RESERVED] = 0
	L2_cache_stats_breakdown[TEXTURE_ACC_R][MISS] = 0
	L2_cache_stats_breakdown[TEXTURE_ACC_R][RESERVATION_FAIL] = 0
	L2_cache_stats_breakdown[TEXTURE_ACC_R][SECTOR_MISS] = 0
	L2_cache_stats_breakdown[TEXTURE_ACC_R][MSHR_HIT] = 0
	L2_cache_stats_breakdown[GLOBAL_ACC_W][HIT] = 5818811
	L2_cache_stats_breakdown[GLOBAL_ACC_W][HIT_RESERVED] = 0
	L2_cache_stats_breakdown[GLOBAL_ACC_W][MISS] = 0
	L2_cache_stats_breakdown[GLOBAL_ACC_W][RESERVATION_FAIL] = 0
	L2_cache_stats_breakdown[GLOBAL_ACC_W][SECTOR_MISS] = 0
	L2_cache_stats_breakdown[GLOBAL_ACC_W][MSHR_HIT] = 0
	L2_cache_stats_breakdown[LOCAL_ACC_W][HIT] = 0
	L2_cache_stats_breakdown[LOCAL_ACC_W][HIT_RESERVED] = 0
	L2_cache_stats_breakdown[LOCAL_ACC_W][MISS] = 0
	L2_cache_stats_breakdown[LOCAL_ACC_W][RESERVATION_FAIL] = 0
	L2_cache_stats_breakdown[LOCAL_ACC_W][SECTOR_MISS] = 0
	L2_cache_stats_breakdown[LOCAL_ACC_W][MSHR_HIT] = 0
	L2_cache_stats_breakdown[L1_WRBK_ACC][HIT] = 0
	L2_cache_stats_breakdown[L1_WRBK_ACC][HIT_RESERVED] = 0
	L2_cache_stats_breakdown[L1_WRBK_ACC][MISS] = 0
	L2_cache_stats_breakdown[L1_WRBK_ACC][RESERVATION_FAIL] = 0
	L2_cache_stats_breakdown[L1_WRBK_ACC][SECTOR_MISS] = 0
	L2_cache_stats_breakdown[L1_WRBK_ACC][MSHR_HIT] = 0
	L2_cache_stats_breakdown[L2_WRBK_ACC][HIT] = 0
	L2_cache_stats_breakdown[L2_WRBK_ACC][HIT_RESERVED] = 0
	L2_cache_stats_breakdown[L2_WRBK_ACC][MISS] = 0
	L2_cache_stats_breakdown[L2_WRBK_ACC][RESERVATION_FAIL] = 0
	L2_cache_stats_breakdown[L2_WRBK_ACC][SECTOR_MISS] = 0
	L2_cache_stats_breakdown[L2_WRBK_ACC][MSHR_HIT] = 0
	L2_cache_stats_breakdown[INST_ACC_R][HIT] = 0
	L2_cache_stats_breakdown[INST_ACC_R][HIT_RESERVED] = 0
	L2_cache_stats_breakdown[INST_ACC_R][MISS] = 0
	L2_cache_stats_breakdown[INST_ACC_R][RESERVATION_FAIL] = 0
	L2_cache_stats_breakdown[INST_ACC_R][SECTOR_MISS] = 0
	L2_cache_stats_breakdown[INST_ACC_R][MSHR_HIT] = 0
	L2_cache_stats_breakdown[L1_WR_ALLOC_R][HIT] = 0
	L2_cache_stats_breakdown[L1_WR_ALLOC_R][HIT_RESERVED] = 0
	L2_cache_stats_breakdown[L1_WR_ALLOC_R][MISS] = 0
	L2_cache_stats_breakdown[L1_WR_ALLOC_R][RESERVATION_FAIL] = 0
	L2_cache_stats_breakdown[L1_WR_ALLOC_R][SECTOR_MISS] = 0
	L2_cache_stats_breakdown[L1_WR_ALLOC_R][MSHR_HIT] = 0
	L2_cache_stats_breakdown[L2_WR_ALLOC_R][HIT] = 0
	L2_cache_stats_breakdown[L2_WR_ALLOC_R][HIT_RESERVED] = 0
	L2_cache_stats_breakdown[L2_WR_ALLOC_R][MISS] = 0
	L2_cache_stats_breakdown[L2_WR_ALLOC_R][RESERVATION_FAIL] = 0
	L2_cache_stats_breakdown[L2_WR_ALLOC_R][SECTOR_MISS] = 0
	L2_cache_stats_breakdown[L2_WR_ALLOC_R][MSHR_HIT] = 0
	L2_cache_stats_breakdown[GLOBAL_ACC_R][TOTAL_ACCESS] = 19942777
	L2_cache_stats_breakdown[GLOBAL_ACC_W][TOTAL_ACCESS] = 5818811
L2_total_cache_reservation_fail_breakdown:
	L2_cache_stats_fail_breakdown[GLOBAL_ACC_R][MSHR_ENRTY_FAIL] = 900
	L2_cache_stats_fail_breakdown[GLOBAL_ACC_R][MSHR_MERGE_ENRTY_FAIL] = 97329
L2_cache_data_port_util = 0.118
L2_cache_fill_port_util = 0.190

icnt_total_pkts_mem_to_simt=25761588
icnt_total_pkts_simt_to_mem=25761588
LD_mem_lat_dist  0 0 0 0 0 0 0 0 0 0 0 0 0 0 0 0 0 0 0 0 0 0 0 0 0 0 0
ST_mem_lat_dist  0 0 0 0 0 0 0 0 0 0 0 0 0 0 0 0 0 0 0 0 0 0 0 0 0 0 0
----------------------------Interconnect-DETAILS--------------------------------
Req_Network_injected_packets_num = 25761588
Req_Network_cycles = 3448690
Req_Network_injected_packets_per_cycle =       7.4700 
Req_Network_conflicts_per_cycle =       2.6163
Req_Network_conflicts_per_cycle_util =       2.6570
Req_Bank_Level_Parallism =       7.5862
Req_Network_in_buffer_full_per_cycle =       0.0000
Req_Network_in_buffer_avg_util =       2.1912
Req_Network_out_buffer_full_per_cycle =       0.0000
Req_Network_out_buffer_avg_util =       0.4545

Reply_Network_injected_packets_num = 25761588
Reply_Network_cycles = 3448690
Reply_Network_injected_packets_per_cycle =        7.4700
Reply_Network_conflicts_per_cycle =        4.6916
Reply_Network_conflicts_per_cycle_util =       4.7611
Reply_Bank_Level_Parallism =       7.5808
Reply_Network_in_buffer_full_per_cycle =       0.0000
Reply_Network_in_buffer_avg_util =       1.0479
Reply_Network_out_buffer_full_per_cycle =       0.0000
Reply_Network_out_buffer_avg_util =       0.2490
----------------------------END-of-Interconnect-DETAILS-------------------------


gpgpu_simulation_time = 0 days, 9 hrs, 6 min, 45 sec (32805 sec)
gpgpu_simulation_rate = 41583 (inst/sec)
gpgpu_simulation_rate = 105 (cycle/sec)
gpgpu_silicon_slowdown = 13000000x
GPGPU-Sim: synchronize waiting for inactive GPU simulation
GPGPU-Sim API: Stream Manager State
GPGPU-Sim: detected inactive GPU simulation thread
	runtime [cuda_afforest] = 32732467.373000 ms.
Verifying...
	runtime [serial] = 1131.757000 ms.
Correct
GPGPU-Sim: *** exit detected ***
