

        *** GPGPU-Sim Simulator Version 4.2.0  [build gpgpu-sim_git-commit-5e9d31b8132651796656877ecb58fde27177ba7a_modified_315.0] ***


GPGPU-Sim PTX: simulation mode 0 (can change with PTX_SIM_MODE_FUNC environment variable:
               1=functional simulation only, 0=detailed performance simulator)
GPGPU-Sim PTX: overriding embedded ptx with ptx file (PTX_SIM_USE_PTX_FILE is set)
GPGPU-Sim: Configuration options:

-save_embedded_ptx                      0 # saves ptx files embedded in binary as <n>.ptx
-keep                                   0 # keep intermediate files created by GPGPU-Sim when interfacing with external programs
-gpgpu_ptx_save_converted_ptxplus                    0 # Saved converted ptxplus to a file
-gpgpu_occupancy_sm_number                   75 # The SM number to pass to ptxas when getting register usage for computing GPU occupancy. This parameter is required in the config.
-ptx_opcode_latency_int           4,4,4,4,21 # Opcode latencies for integers <ADD,MAX,MUL,MAD,DIV,SHFL>Default 1,1,19,25,145,32
-ptx_opcode_latency_fp           4,4,4,4,39 # Opcode latencies for single precision floating points <ADD,MAX,MUL,MAD,DIV>Default 1,1,1,1,30
-ptx_opcode_latency_dp      64,64,64,64,330 # Opcode latencies for double precision floating points <ADD,MAX,MUL,MAD,DIV>Default 8,8,8,8,335
-ptx_opcode_latency_sfu                   21 # Opcode latencies for SFU instructionsDefault 8
-ptx_opcode_latency_tesnor                   64 # Opcode latencies for Tensor instructionsDefault 64
-ptx_opcode_initiation_int            2,2,2,2,2 # Opcode initiation intervals for integers <ADD,MAX,MUL,MAD,DIV,SHFL>Default 1,1,4,4,32,4
-ptx_opcode_initiation_fp            2,2,2,2,4 # Opcode initiation intervals for single precision floating points <ADD,MAX,MUL,MAD,DIV>Default 1,1,1,1,5
-ptx_opcode_initiation_dp      64,64,64,64,130 # Opcode initiation intervals for double precision floating points <ADD,MAX,MUL,MAD,DIV>Default 8,8,8,8,130
-ptx_opcode_initiation_sfu                    8 # Opcode initiation intervals for sfu instructionsDefault 8
-ptx_opcode_initiation_tensor                   64 # Opcode initiation intervals for tensor instructionsDefault 64
-cdp_latency         7200,8000,100,12000,1600 # CDP API latency <cudaStreamCreateWithFlags, cudaGetParameterBufferV2_init_perWarp, cudaGetParameterBufferV2_perKernel, cudaLaunchDeviceV2_init_perWarp, cudaLaunchDevicV2_perKernel>Default 7200,8000,100,12000,1600
-network_mode                           2 # Interconnection network mode
-inter_config_file                   mesh # Interconnection network config file
-icnt_in_buffer_limit                  512 # in_buffer_limit
-icnt_out_buffer_limit                  512 # out_buffer_limit
-icnt_subnets                           2 # subnets
-icnt_arbiter_algo                      1 # arbiter_algo
-icnt_verbose                           0 # inct_verbose
-icnt_grant_cycles                      1 # grant_cycles
-gpgpu_ptx_use_cuobjdump                    1 # Use cuobjdump to extract ptx and sass from binaries
-gpgpu_experimental_lib_support                    0 # Try to extract code from cuda libraries [Broken because of unknown cudaGetExportTable]
-checkpoint_option                      0 #  checkpointing flag (0 = no checkpoint)
-checkpoint_kernel                      1 #  checkpointing during execution of which kernel (1- 1st kernel)
-checkpoint_CTA                         0 #  checkpointing after # of CTA (< less than total CTA)
-resume_option                          0 #  resume flag (0 = no resume)
-resume_kernel                          0 #  Resume from which kernel (1= 1st kernel)
-resume_CTA                             0 #  resume from which CTA 
-checkpoint_CTA_t                       0 #  resume from which CTA 
-checkpoint_insn_Y                      0 #  resume from which CTA 
-gpgpu_ptx_convert_to_ptxplus                    0 # Convert SASS (native ISA) to ptxplus and run ptxplus
-gpgpu_ptx_force_max_capability                   75 # Force maximum compute capability
-gpgpu_ptx_inst_debug_to_file                    0 # Dump executed instructions' debug information to file
-gpgpu_ptx_inst_debug_file       inst_debug.txt # Executed instructions' debug output file
-gpgpu_ptx_inst_debug_thread_uid                    1 # Thread UID for executed instructions' debug output
-gpgpu_simd_model                       1 # 1 = post-dominator
-gpgpu_shader_core_pipeline              1024:32 # shader core pipeline config, i.e., {<nthread>:<warpsize>}
-gpgpu_tex_cache:l1  N:4:128:256,L:R:m:N:L,T:512:8,128:2 # per-shader L1 texture cache  (READ-ONLY) config  {<nsets>:<bsize>:<assoc>,<rep>:<wr>:<alloc>:<wr_alloc>,<mshr>:<N>:<merge>,<mq>:<rf>}
-gpgpu_const_cache:l1 N:128:64:8,L:R:f:N:L,S:2:64,4 # per-shader L1 constant memory cache  (READ-ONLY) config  {<nsets>:<bsize>:<assoc>,<rep>:<wr>:<alloc>:<wr_alloc>,<mshr>:<N>:<merge>,<mq>} 
-gpgpu_cache:il1     N:64:128:16,L:R:f:N:L,S:2:48,4 # shader L1 instruction cache config  {<nsets>:<bsize>:<assoc>,<rep>:<wr>:<alloc>:<wr_alloc>,<mshr>:<N>:<merge>,<mq>} 
-gpgpu_cache:dl1     S:4:128:64,L:T:m:L:L,A:256:32,16:0,32 # per-shader L1 data cache config  {<nsets>:<bsize>:<assoc>,<rep>:<wr>:<alloc>:<wr_alloc>,<mshr>:<N>:<merge>,<mq> | none}
-gpgpu_l1_cache_write_ratio                   25 # L1D write ratio
-gpgpu_l1_banks                         4 # The number of L1 cache banks
-gpgpu_l1_banks_byte_interleaving                   32 # l1 banks byte interleaving granularity
-gpgpu_l1_banks_hashing_function                    0 # l1 banks hashing function
-gpgpu_l1_latency                      32 # L1 Hit Latency
-gpgpu_smem_latency                    30 # smem Latency
-gpgpu_cache:dl1PrefL1                 none # per-shader L1 data cache config  {<nsets>:<bsize>:<assoc>,<rep>:<wr>:<alloc>:<wr_alloc>,<mshr>:<N>:<merge>,<mq> | none}
-gpgpu_cache:dl1PrefShared                 none # per-shader L1 data cache config  {<nsets>:<bsize>:<assoc>,<rep>:<wr>:<alloc>:<wr_alloc>,<mshr>:<N>:<merge>,<mq> | none}
-gpgpu_gmem_skip_L1D                    0 # global memory access skip L1D cache (implements -Xptxas -dlcm=cg, default=no skip)
-gpgpu_perfect_mem                      0 # enable perfect memory mode (no cache miss)
-n_regfile_gating_group                    4 # group of lanes that should be read/written together)
-gpgpu_clock_gated_reg_file                    0 # enable clock gated reg file for power calculations
-gpgpu_clock_gated_lanes                    0 # enable clock gated lanes for power calculations
-gpgpu_shader_registers                65536 # Number of registers per shader core. Limits number of concurrent CTAs. (default 8192)
-gpgpu_registers_per_block                65536 # Maximum number of registers per CTA. (default 8192)
-gpgpu_ignore_resources_limitation                    0 # gpgpu_ignore_resources_limitation (default 0)
-gpgpu_shader_cta                      16 # Maximum number of concurrent CTAs in shader (default 32)
-gpgpu_num_cta_barriers                   16 # Maximum number of named barriers per CTA (default 16)
-gpgpu_n_clusters                      30 # number of processing clusters
-gpgpu_n_cores_per_cluster                    1 # number of simd cores per cluster
-gpgpu_n_cluster_ejection_buffer_size                   32 # number of packets in ejection buffer
-gpgpu_n_ldst_response_buffer_size                    2 # number of response packets in ld/st unit ejection buffer
-gpgpu_shmem_per_block                49152 # Size of shared memory per thread block or CTA (default 48kB)
-gpgpu_shmem_size                   65536 # Size of shared memory per shader core (default 16kB)
-gpgpu_shmem_option                 32,64 # Option list of shared memory sizes
-gpgpu_unified_l1d_size                   96 # Size of unified data cache(L1D + shared memory) in KB
-gpgpu_adaptive_cache_config                    1 # adaptive_cache_config
-gpgpu_shmem_sizeDefault                65536 # Size of shared memory per shader core (default 16kB)
-gpgpu_shmem_size_PrefL1                16384 # Size of shared memory per shader core (default 16kB)
-gpgpu_shmem_size_PrefShared                16384 # Size of shared memory per shader core (default 16kB)
-gpgpu_shmem_num_banks                   32 # Number of banks in the shared memory in each shader core (default 16)
-gpgpu_shmem_limited_broadcast                    0 # Limit shared memory to do one broadcast per cycle (default on)
-gpgpu_shmem_warp_parts                    1 # Number of portions a warp is divided into for shared memory bank conflict check 
-gpgpu_mem_unit_ports                    1 # The number of memory transactions allowed per core cycle
-gpgpu_shmem_warp_parts                    1 # Number of portions a warp is divided into for shared memory bank conflict check 
-gpgpu_warpdistro_shader                   -1 # Specify which shader core to collect the warp size distribution from
-gpgpu_warp_issue_shader                    0 # Specify which shader core to collect the warp issue distribution from
-gpgpu_local_mem_map                    1 # Mapping from local memory space address to simulated GPU physical address space (default = enabled)
-gpgpu_num_reg_banks                    8 # Number of register banks (default = 8)
-gpgpu_reg_bank_use_warp_id                    0 # Use warp ID in mapping registers to banks (default = off)
-gpgpu_sub_core_model                    1 # Sub Core Volta/Pascal model (default = off)
-gpgpu_enable_specialized_operand_collector                    0 # enable_specialized_operand_collector
-gpgpu_operand_collector_num_units_sp                    4 # number of collector units (default = 4)
-gpgpu_operand_collector_num_units_dp                    0 # number of collector units (default = 0)
-gpgpu_operand_collector_num_units_sfu                    4 # number of collector units (default = 4)
-gpgpu_operand_collector_num_units_int                    0 # number of collector units (default = 0)
-gpgpu_operand_collector_num_units_tensor_core                    4 # number of collector units (default = 4)
-gpgpu_operand_collector_num_units_mem                    2 # number of collector units (default = 2)
-gpgpu_operand_collector_num_units_gen                    8 # number of collector units (default = 0)
-gpgpu_operand_collector_num_in_ports_sp                    1 # number of collector unit in ports (default = 1)
-gpgpu_operand_collector_num_in_ports_dp                    0 # number of collector unit in ports (default = 0)
-gpgpu_operand_collector_num_in_ports_sfu                    1 # number of collector unit in ports (default = 1)
-gpgpu_operand_collector_num_in_ports_int                    0 # number of collector unit in ports (default = 0)
-gpgpu_operand_collector_num_in_ports_tensor_core                    1 # number of collector unit in ports (default = 1)
-gpgpu_operand_collector_num_in_ports_mem                    1 # number of collector unit in ports (default = 1)
-gpgpu_operand_collector_num_in_ports_gen                    8 # number of collector unit in ports (default = 0)
-gpgpu_operand_collector_num_out_ports_sp                    1 # number of collector unit in ports (default = 1)
-gpgpu_operand_collector_num_out_ports_dp                    0 # number of collector unit in ports (default = 0)
-gpgpu_operand_collector_num_out_ports_sfu                    1 # number of collector unit in ports (default = 1)
-gpgpu_operand_collector_num_out_ports_int                    0 # number of collector unit in ports (default = 0)
-gpgpu_operand_collector_num_out_ports_tensor_core                    1 # number of collector unit in ports (default = 1)
-gpgpu_operand_collector_num_out_ports_mem                    1 # number of collector unit in ports (default = 1)
-gpgpu_operand_collector_num_out_ports_gen                    8 # number of collector unit in ports (default = 0)
-gpgpu_coalesce_arch                   75 # Coalescing arch (GT200 = 13, Fermi = 20)
-gpgpu_num_sched_per_core                    4 # Number of warp schedulers per core
-gpgpu_max_insn_issue_per_warp                    1 # Max number of instructions that can be issued per warp in one cycle by scheduler (either 1 or 2)
-gpgpu_dual_issue_diff_exec_units                    1 # should dual issue use two different execution unit resources (Default = 1)
-gpgpu_simt_core_sim_order                    1 # Select the simulation order of cores in a cluster (0=Fix, 1=Round-Robin)
-gpgpu_pipeline_widths 4,4,4,4,4,4,4,4,4,4,8,4,4 # Pipeline widths ID_OC_SP,ID_OC_DP,ID_OC_INT,ID_OC_SFU,ID_OC_MEM,OC_EX_SP,OC_EX_DP,OC_EX_INT,OC_EX_SFU,OC_EX_MEM,EX_WB,ID_OC_TENSOR_CORE,OC_EX_TENSOR_CORE
-gpgpu_tensor_core_avail                    1 # Tensor Core Available (default=0)
-gpgpu_num_sp_units                     4 # Number of SP units (default=1)
-gpgpu_num_dp_units                     4 # Number of DP units (default=0)
-gpgpu_num_int_units                    4 # Number of INT units (default=0)
-gpgpu_num_sfu_units                    4 # Number of SF units (default=1)
-gpgpu_num_tensor_core_units                    4 # Number of tensor_core units (default=1)
-gpgpu_num_mem_units                    1 # Number if ldst units (default=1) WARNING: not hooked up to anything
-gpgpu_scheduler                      lrr # Scheduler configuration: < lrr | gto | two_level_active > If two_level_active:<num_active_warps>:<inner_prioritization>:<outer_prioritization>For complete list of prioritization values see shader.h enum scheduler_prioritization_typeDefault: gto
-gpgpu_concurrent_kernel_sm                    0 # Support concurrent kernels on a SM (default = disabled)
-gpgpu_perfect_inst_const_cache                    1 # perfect inst and const cache mode, so all inst and const hits in the cache(default = disabled)
-gpgpu_inst_fetch_throughput                    4 # the number of fetched intruction per warp each cycle
-gpgpu_reg_file_port_throughput                    2 # the number ports of the register file
-specialized_unit_1         0,4,4,4,4,BRA # specialized unit config {<enabled>,<num_units>:<latency>:<initiation>,<ID_OC_SPEC>:<OC_EX_SPEC>,<NAME>}
-specialized_unit_2         0,4,4,4,4,BRA # specialized unit config {<enabled>,<num_units>:<latency>:<initiation>,<ID_OC_SPEC>:<OC_EX_SPEC>,<NAME>}
-specialized_unit_3         0,4,4,4,4,BRA # specialized unit config {<enabled>,<num_units>:<latency>:<initiation>,<ID_OC_SPEC>:<OC_EX_SPEC>,<NAME>}
-specialized_unit_4         0,4,4,4,4,BRA # specialized unit config {<enabled>,<num_units>:<latency>:<initiation>,<ID_OC_SPEC>:<OC_EX_SPEC>,<NAME>}
-specialized_unit_5         0,4,4,4,4,BRA # specialized unit config {<enabled>,<num_units>:<latency>:<initiation>,<ID_OC_SPEC>:<OC_EX_SPEC>,<NAME>}
-specialized_unit_6         0,4,4,4,4,BRA # specialized unit config {<enabled>,<num_units>:<latency>:<initiation>,<ID_OC_SPEC>:<OC_EX_SPEC>,<NAME>}
-specialized_unit_7         0,4,4,4,4,BRA # specialized unit config {<enabled>,<num_units>:<latency>:<initiation>,<ID_OC_SPEC>:<OC_EX_SPEC>,<NAME>}
-specialized_unit_8         0,4,4,4,4,BRA # specialized unit config {<enabled>,<num_units>:<latency>:<initiation>,<ID_OC_SPEC>:<OC_EX_SPEC>,<NAME>}
-gpgpu_perf_sim_memcpy                    1 # Fill the L2 cache on memcpy
-gpgpu_simple_dram_model                    0 # simple_dram_model with fixed latency and BW
-gpgpu_dram_scheduler                    1 # 0 = fifo, 1 = FR-FCFS (defaul)
-gpgpu_dram_partition_queues          64:64:64:64 # i2$:$2d:d2$:$2i
-l2_ideal                               0 # Use a ideal L2 cache that always hit
-gpgpu_cache:dl2     S:64:128:16,L:B:m:L:P,A:192:4,32:0,32 # unified banked L2 data cache config  {<nsets>:<bsize>:<assoc>,<rep>:<wr>:<alloc>:<wr_alloc>,<mshr>:<N>:<merge>,<mq>}
-gpgpu_cache:dl2_texture_only                    0 # L2 cache used for texture only
-gpgpu_n_mem                           12 # number of memory modules (e.g. memory controllers) in gpu
-gpgpu_n_sub_partition_per_mchannel                    2 # number of memory subpartition in each memory module
-gpgpu_n_mem_per_ctrlr                    1 # number of memory chips per memory controller
-gpgpu_memlatency_stat                   14 # track and display latency statistics 0x2 enables MC, 0x4 enables queue logs
-gpgpu_frfcfs_dram_sched_queue_size                   64 # 0 = unlimited (default); # entries per chip
-gpgpu_dram_return_queue_size                  192 # 0 = unlimited (default); # entries per chip
-gpgpu_dram_buswidth                    2 # default = 4 bytes (8 bytes per cycle at DDR)
-gpgpu_dram_burst_length                   16 # Burst length of each DRAM request (default = 4 data bus cycle)
-dram_data_command_freq_ratio                    4 # Frequency ratio between DRAM data bus and command bus (default = 2 times, i.e. DDR)
-gpgpu_dram_timing_opt nbk=16:CCD=4:RRD=12:RCD=24:RAS=55:RP=24:RC=78:CL=24:WL=8:CDLR=10:WR=24:nbkgrp=4:CCDL=6:RTPL=4 # DRAM timing parameters = {nbk:tCCD:tRRD:tRCD:tRAS:tRP:tRC:CL:WL:tCDLR:tWR:nbkgrp:tCCDL:tRTPL}
-gpgpu_l2_rop_latency                  194 # ROP queue latency (default 85)
-dram_latency                          96 # DRAM latency (default 30)
-dram_dual_bus_interface                    0 # dual_bus_interface (default = 0) 
-dram_bnk_indexing_policy                    0 # dram_bnk_indexing_policy (0 = normal indexing, 1 = Xoring with the higher bits) (Default = 0)
-dram_bnkgrp_indexing_policy                    1 # dram_bnkgrp_indexing_policy (0 = take higher bits, 1 = take lower bits) (Default = 0)
-dram_seperate_write_queue_enable                    0 # Seperate_Write_Queue_Enable
-dram_write_queue_size             32:28:16 # Write_Queue_Size
-dram_elimnate_rw_turnaround                    0 # elimnate_rw_turnaround i.e set tWTR and tRTW = 0
-icnt_flit_size                        40 # icnt_flit_size
-icnt_flit_size                        40 # icnt_flit_size
-mem_profiler                           1 # memory access runtime profiling (0 = not enabled)
-gpgpu_mem_addr_mapping dramid@8;00000000.00000000.00000000.00000000.0000RRRR.RRRRRRRR.RBBBCCCC.BCCSSSSS # mapping memory address to dram model {dramid@<start bit>;<memory address map>}
-gpgpu_mem_addr_test                    0 # run sweep test to check address mapping for aliased address
-gpgpu_mem_address_mask                    1 # 0 = old addressing mask, 1 = new addressing mask, 2 = new add. mask + flipped bank sel and chip sel bits
-gpgpu_memory_partition_indexing                    0 # 0 = no indexing, 1 = bitwise xoring, 2 = IPoly, 3 = custom indexing
-accelwattch_xml_file accelwattch_sass_sim.xml # AccelWattch XML file
-power_simulation_enabled                    1 # Turn on power simulator (1=On, 0=Off)
-power_per_cycle_dump                    1 # Dump detailed power output each cycle
-hw_perf_file_name            hw_perf.csv # Hardware Performance Statistics file
-hw_perf_bench_name    hw_perf_bench_name # Kernel Name in Hardware Performance Statistics file
-power_simulation_mode                    0 # Switch performance counter input for power simulation (0=Sim, 1=HW, 2=HW-Sim Hybrid)
-dvfs_enabled                           1 # Turn on DVFS for power model
-aggregate_power_stats                    0 # Accumulate power across all kernels
-accelwattch_hybrid_perfsim_L1_RH                    0 # Get L1 Read Hits for Accelwattch-Hybrid from Accel-Sim
-accelwattch_hybrid_perfsim_L1_RM                    0 # Get L1 Read Misses for Accelwattch-Hybrid from Accel-Sim
-accelwattch_hybrid_perfsim_L1_WH                    0 # Get L1 Write Hits for Accelwattch-Hybrid from Accel-Sim
-accelwattch_hybrid_perfsim_L1_WM                    0 # Get L1 Write Misses for Accelwattch-Hybrid from Accel-Sim
-accelwattch_hybrid_perfsim_L2_RH                    0 # Get L2 Read Hits for Accelwattch-Hybrid from Accel-Sim
-accelwattch_hybrid_perfsim_L2_RM                    0 # Get L2 Read Misses for Accelwattch-Hybrid from Accel-Sim
-accelwattch_hybrid_perfsim_L2_WH                    0 # Get L2 Write Hits for Accelwattch-Hybrid from Accel-Sim
-accelwattch_hybrid_perfsim_L2_WM                    0 # Get L2 Write Misses for Accelwattch-Hybrid from Accel-Sim
-accelwattch_hybrid_perfsim_CC_ACC                    0 # Get Constant Cache Acesses for Accelwattch-Hybrid from Accel-Sim
-accelwattch_hybrid_perfsim_SHARED_ACC                    0 # Get Shared Memory Acesses for Accelwattch-Hybrid from Accel-Sim
-accelwattch_hybrid_perfsim_DRAM_RD                    0 # Get DRAM Reads for Accelwattch-Hybrid from Accel-Sim
-accelwattch_hybrid_perfsim_DRAM_WR                    0 # Get DRAM Writes for Accelwattch-Hybrid from Accel-Sim
-accelwattch_hybrid_perfsim_NOC                    0 # Get Interconnect Acesses for Accelwattch-Hybrid from Accel-Sim
-accelwattch_hybrid_perfsim_PIPE_DUTY                    0 # Get Pipeline Duty Cycle Acesses for Accelwattch-Hybrid from Accel-Sim
-accelwattch_hybrid_perfsim_NUM_SM_IDLE                    0 # Get Number of Idle SMs for Accelwattch-Hybrid from Accel-Sim
-accelwattch_hybrid_perfsim_CYCLES                    0 # Get Executed Cycles for Accelwattch-Hybrid from Accel-Sim
-accelwattch_hybrid_perfsim_VOLTAGE                    0 # Get Chip Voltage for Accelwattch-Hybrid from Accel-Sim
-power_trace_enabled                    0 # produce a file for the power trace (1=On, 0=Off)
-power_trace_zlevel                     0 # Compression level of the power trace output log (0=no comp, 9=highest)
-steady_power_levels_enabled                    0 # produce a file for the steady power levels (1=On, 0=Off)
-steady_state_definition                  8:4 # allowed deviation:number of samples
-gpgpu_max_cycle                        0 # terminates gpu simulation early (0 = no limit)
-gpgpu_max_insn                         0 # terminates gpu simulation early (0 = no limit)
-gpgpu_max_cta                          0 # terminates gpu simulation early (0 = no limit)
-gpgpu_max_completed_cta                    0 # terminates gpu simulation early (0 = no limit)
-gpgpu_runtime_stat                   100 # display runtime statistics such as dram utilization {<freq>:<flag>}
-liveness_message_freq                    1 # Minimum number of seconds between simulation liveness messages (0 = always print)
-gpgpu_compute_capability_major                    7 # Major compute capability version number
-gpgpu_compute_capability_minor                    5 # Minor compute capability version number
-gpgpu_flush_l1_cache                    1 # Flush L1 cache at the end of each kernel call
-gpgpu_flush_l2_cache                    0 # Flush L2 cache at the end of each kernel call
-gpgpu_deadlock_detect                    1 # Stop the simulation at deadlock (1=on (default), 0=off)
-gpgpu_ptx_instruction_classification                    0 # if enabled will classify ptx instruction types per kernel (Max 255 kernels now)
-gpgpu_ptx_sim_mode                     0 # Select between Performance (default) or Functional simulation (1)
-gpgpu_clock_domains 1365:1365:1365:3500.5 # Clock Domain Frequencies in MhZ {<Core Clock>:<ICNT Clock>:<L2 Clock>:<DRAM Clock>}
-gpgpu_max_concurrent_kernel                  128 # maximum kernels that can run concurrently on GPU, set this value according to max resident grids for your compute capability
-gpgpu_cflog_interval                    0 # Interval between each snapshot in control flow logger
-visualizer_enabled                     0 # Turn on visualizer output (1=On, 0=Off)
-visualizer_outputfile                 NULL # Specifies the output log file for visualizer
-visualizer_zlevel                      6 # Compression level of the visualizer output log (0=no comp, 9=highest)
-gpgpu_stack_size_limit                 1024 # GPU thread stack size
-gpgpu_heap_size_limit              8388608 # GPU malloc heap size 
-gpgpu_runtime_sync_depth_limit                    2 # GPU device runtime synchronize depth
-gpgpu_runtime_pending_launch_count_limit                 2048 # GPU device runtime pending launch count
-trace_enabled                          0 # Turn on traces
-trace_components                    none # comma seperated list of traces to enable. Complete list found in trace_streams.tup. Default none
-trace_sampling_core                    0 # The core which is printed using CORE_DPRINTF. Default 0
-trace_sampling_memory_partition                   -1 # The memory partition which is printed using MEMPART_DPRINTF. Default -1 (i.e. all)
-enable_ptx_file_line_stats                    1 # Turn on PTX source line statistic profiling. (1 = On)
-ptx_line_stats_filename gpgpu_inst_stats.txt # Output file for PTX source line statistics.
-gpgpu_kernel_launch_latency                 5000 # Kernel launch latency in cycles. Default: 0
-gpgpu_cdp_enabled                      0 # Turn on CDP
-gpgpu_TB_launch_latency                    0 # thread block launch latency in cycles. Default: 0
-mem_runtime_stat              4294967396 # memory access runtime profiling samplinge068c1d9eaed1d9f64b3f8bb68ba89af  /home/pars/Documents/sim_4/lstm
Extracting PTX file and ptxas options    1: lstm.1.sm_75.ptx -arch=sm_75
 freq
-L1D_metrics                            1 # memory access runtime profiling for L1 data cache
-IPC_per_prof_interval                    1 # IPC per profiling interval
-instruction_monitor                    1 # Instruction monitor
-noncoal_metrics                        0 # memory access runtime profiling for shared memory
-L2_metrics                             1 # memory access runtime profiling for L2 cache
-DRAM_metrics                           1 # memory access runtime profiling for DRAM
-Shmem_metrics                          0 # memory access runtime profiling for noncoalesced accesses
-store_enable                           1 # Enable stores for memory profiling
-accumulate_stats                       0 # Accumulate stats for the memory profiling
-dump_enable                            0 # Process dump enable flag - (def = 0)
-flush_l1d                              0 # Enable flushings for L1D caches - (default = 0)
-flush_l2                               0 # Enable flushings for L2 caches - (default = 0)
-flush_dram                             0 # Enable flushings for DRAM - (default = 0)
-flush_noncoalesceds                    0 # Enable flushings for non coalesced accesses - (default = 0)
-flush_shmems                           0 # Enable flushings for shared memory accesses - (default = 0)
-error_percentage          21474836480001 # Error percentage for the flushes - (default = 1)
-dump_sampling_cycle       21474836485000 # Dump sampling frequency - (default = 5000)
-flush_acc_type                         2 # Flush access types
-monitor_sampling_cycle                 5000 # Monitoring sampling cycle - (default = 5000)
DRAM Timing Options:
nbk                                    16 # number of banks
CCD                                     4 # column to column delay
RRD                                    12 # minimal delay between activation of rows in different banks
RCD                                    24 # row to column delay
RAS                                    55 # time needed to activate row
RP                                     24 # time needed to precharge (deactivate) row
RC                                     78 # row cycle time
CDLR                                   10 # switching from write to read (changes tWTR)
WR                                     24 # last data-in to row precharge
CL                                     24 # CAS latency
WL                                      8 # Write latency
nbkgrp                                  4 # number of bank groups
CCDL                                    6 # column to column delay between accesses to different bank groups
RTPL                                    4 # read to precharge delay between accesses to different bank groups
Total number of memory sub partition = 24
addr_dec_mask[CHIP]  = 0000000000000000 	high:64 low:0
addr_dec_mask[BK]    = 0000000000007080 	high:15 low:7
addr_dec_mask[ROW]   = 000000000fff8000 	high:28 low:15
addr_dec_mask[COL]   = 0000000000000f7f 	high:12 low:0
addr_dec_mask[BURST] = 000000000000001f 	high:5 low:0
sub_partition_id_mask = 0000000000000080
GPGPU-Sim uArch: clock freqs: 1365000000.000000:1365000000.000000:1365000000.000000:3500500000.000000
GPGPU-Sim uArch: clock periods: 0.00000000073260073260:0.00000000073260073260:0.00000000073260073260:0.00000000028567347522
*** Initializing Memory Statistics ***
GPGPU-Sim uArch: performance model initialization complete.
self exe links to: /home/pars/Documents/sim_4/lstm
self exe links to: /home/pars/Documents/sim_4/lstm
11.0
GPGPU-Sim PTX: __cudaRegisterFatBinary, fat_cubin_handle = 1, filename=default
self exe links to: /home/pars/Documents/sim_4/lstm
Running md5sum using "md5sum /home/pars/Documents/sim_4/lstm "
self exe links to: /home/pars/Documents/sim_4/lstm
Extracting specific PTX file named lstm.1.sm_75.ptx 
GPGPU-Sim PTX: __cudaRegisterFunction _Z11ExecuteLSTMPdS_S_S_S_S_S_S_S_S_S_S_S_S_S_ : hostFun 0x0x55e6c35dde5b, fat_cubin_handle = 1
GPGPU-Sim PTX: Parsing lstm.1.sm_75.ptx
GPGPU-Sim PTX: allocating shared region for "_ZZ11ExecuteLSTMPdS_S_S_S_S_S_S_S_S_S_S_S_S_S_E1u" from 0x0 to 0x320 (shared memory space)
GPGPU-Sim PTX: instruction assembly for function '_Z11ExecuteLSTMPdS_S_S_S_S_S_S_S_S_S_S_S_S_S_'...   done.
GPGPU-Sim PTX: finished parsing EMBEDDED .ptx file lstm.1.sm_75.ptx
GPGPU-Sim PTX: loading globals with explicit initializers... 
GPGPU-Sim PTX: finished loading globals (0 bytes total).
GPGPU-Sim PTX: loading constants with explicit initializers...  done.
GPGPU-Sim PTX: Loading PTXInfo from lstm.1.sm_75.ptx
GPGPU-Sim PTX: Kernel '_Z11ExecuteLSTMPdS_S_S_S_S_S_S_S_S_S_S_S_S_S_' : regs=66, lmem=0, smem=800, cmem=656
GPGPU-Sim PTX: Setting up arguments for 8 bytes starting at 0x7ffcc52f5a58..
GPGPU-Sim PTX: Setting up arguments for 8 bytes starting at 0x7ffcc52f5a50..
GPGPU-Sim PTX: Setting up arguments for 8 bytes starting at 0x7ffcc52f5a48..
GPGPU-Sim PTX: Setting up arguments for 8 bytes starting at 0x7ffcc52f5a40..
GPGPU-Sim PTX: Setting up arguments for 8 bytes starting at 0x7ffcc52f5a38..
GPGPU-Sim PTX: Setting up arguments for 8 bytes starting at 0x7ffcc52f5a30..
GPGPU-Sim PTX: Setting up arguments for 8 bytes starting at 0x7ffcc52f5a28..
GPGPU-Sim PTX: Setting up arguments for 8 bytes starting at 0x7ffcc52f5a20..
GPGPU-Sim PTX: Setting up arguments for 8 bytes starting at 0x7ffcc52f5a18..
GPGPU-Sim PTX: Setting up arguments for 8 bytes starting at 0x7ffcc52f5a10..
GPGPU-Sim PTX: Setting up arguments for 8 bytes starting at 0x7ffcc52f5a08..
GPGPU-Sim PTX: Setting up arguments for 8 bytes starting at 0x7ffcc52f5a00..
GPGPU-Sim PTX: Setting up arguments for 8 bytes starting at 0x7ffcc52f59f8..
GPGPU-Sim PTX: Setting up arguments for 8 bytes starting at 0x7ffcc52f59f0..
GPGPU-Sim PTX: Setting up arguments for 8 bytes starting at 0x7ffcc52f59e8..

GPGPU-Sim PTX: cudaLaunch for 0x0x55e6c35dde5b (mode=performance simulation) on stream 0
GPGPU-Sim PTX: finding reconvergence points for '_Z11ExecuteLSTMPdS_S_S_S_S_S_S_S_S_S_S_S_S_S_'...
GPGPU-Sim PTX: Finding dominators for '_Z11ExecuteLSTMPdS_S_S_S_S_S_S_S_S_S_S_S_S_S_'...
GPGPU-Sim PTX: Finding immediate dominators for '_Z11ExecuteLSTMPdS_S_S_S_S_S_S_S_S_S_S_S_S_S_'...
GPGPU-Sim PTX: Finding postdominators for '_Z11ExecuteLSTMPdS_S_S_S_S_S_S_S_S_S_S_S_S_S_'...
GPGPU-Sim PTX: Finding immediate postdominators for '_Z11ExecuteLSTMPdS_S_S_S_S_S_S_S_S_S_S_S_S_S_'...
GPGPU-Sim PTX: pre-decoding instructions for '_Z11ExecuteLSTMPdS_S_S_S_S_S_S_S_S_S_S_S_S_S_'...
GPGPU-Sim PTX: reconvergence points for _Z11ExecuteLSTMPdS_S_S_S_S_S_S_S_S_S_S_S_S_S_...
GPGPU-Sim PTX:  1 (potential) branch divergence @  PC=0x088 (lstm.1.sm_75.ptx:65) @%p1 bra $L__BB0_2;

GPGPU-Sim PTX:    immediate post dominator      @  PC=0x300 (lstm.1.sm_75.ptx:156) ld.param.u64 %rd77, [_Z11ExecuteLSTMPdS_S_S_S_S_S_S_S_S_S_S_S_S_S__param_0];

GPGPU-Sim PTX:  2 (potential) branch divergence @  PC=0x090 (lstm.1.sm_75.ptx:66) bra.uni $L__BB0_1;

GPGPU-Sim PTX:    immediate post dominator      @  PC=0x168 (lstm.1.sm_75.ptx:97) add.f64 %fd54, %fd2, %fd2;

GPGPU-Sim PTX:  3 (potential) branch divergence @  PC=0x160 (lstm.1.sm_75.ptx:94) bra.uni $L__BB0_3;

GPGPU-Sim PTX:    immediate post dominator      @  PC=0x300 (lstm.1.sm_75.ptx:156) ld.param.u64 %rd77, [_Z11ExecuteLSTMPdS_S_S_S_S_S_S_S_S_S_S_S_S_S__param_0];

GPGPU-Sim PTX:  4 (potential) branch divergence @  PC=0x358 (lstm.1.sm_75.ptx:167) @%p3 bra $L__BB0_6;

GPGPU-Sim PTX:    immediate post dominator      @  PC=0x380 (lstm.1.sm_75.ptx:176) ld.param.u64 %rd81, [_Z11ExecuteLSTMPdS_S_S_S_S_S_S_S_S_S_S_S_S_S__param_3];

GPGPU-Sim PTX:  5 (potential) branch divergence @  PC=0x370 (lstm.1.sm_75.ptx:171) @%p4 bra $L__BB0_6;

GPGPU-Sim PTX:    immediate post dominator      @  PC=0x380 (lstm.1.sm_75.ptx:176) ld.param.u64 %rd81, [_Z11ExecuteLSTMPdS_S_S_S_S_S_S_S_S_S_S_S_S_S__param_3];

GPGPU-Sim PTX:  6 (potential) branch divergence @  PC=0x420 (lstm.1.sm_75.ptx:196) @%p5 bra $L__BB0_9;

GPGPU-Sim PTX:    immediate post dominator      @  PC=0x448 (lstm.1.sm_75.ptx:205) mul.f64 %fd129, %fd10, 0d0000000000000000;

GPGPU-Sim PTX:  7 (potential) branch divergence @  PC=0x438 (lstm.1.sm_75.ptx:200) @%p6 bra $L__BB0_9;

GPGPU-Sim PTX:    immediate post dominator      @  PC=0x448 (lstm.1.sm_75.ptx:205) mul.f64 %fd129, %fd10, 0d0000000000000000;

GPGPU-Sim PTX:  8 (potential) branch divergence @  PC=0x4a0 (lstm.1.sm_75.ptx:222) @%p10 bra $L__BB0_11;

GPGPU-Sim PTX:    immediate post dominator      @  PC=0x718 (lstm.1.sm_75.ptx:313) mov.u32 %r54, %tid.x;

GPGPU-Sim PTX:  9 (potential) branch divergence @  PC=0x4a8 (lstm.1.sm_75.ptx:223) bra.uni $L__BB0_10;

GPGPU-Sim PTX:    immediate post dominator      @  PC=0x580 (lstm.1.sm_75.ptx:254) add.f64 %fd131, %fd15, %fd15;

GPGPU-Sim PTX: 10 (potential) branch divergence @  PC=0x578 (lstm.1.sm_75.ptx:251) bra.uni $L__BB0_12;

GPGPU-Sim PTX:    immediate post dominator      @  PC=0x718 (lstm.1.sm_75.ptx:313) mov.u32 %r54, %tid.x;

GPGPU-Sim PTX: 11 (potential) branch divergence @  PC=0x768 (lstm.1.sm_75.ptx:323) @%p12 bra $L__BB0_16;

GPGPU-Sim PTX:    immediate post dominator      @  PC=0x848 (lstm.1.sm_75.ptx:357) mov.u32 %r55, %tid.x;

GPGPU-Sim PTX: 12 (potential) branch divergence @  PC=0x828 (lstm.1.sm_75.ptx:350) @%p13 bra $L__BB0_14;

GPGPU-Sim PTX:    immediate post dominator      @  PC=0x830 (lstm.1.sm_75.ptx:352) ld.param.u64 %rd76, [_Z11ExecuteLSTMPdS_S_S_S_S_S_S_S_S_S_S_S_S_S__param_14];

GPGPU-Sim PTX: 13 (potential) branch divergence @  PC=0xa48 (lstm.1.sm_75.ptx:423) @%p14 bra $L__BB0_17;

GPGPU-Sim PTX:    immediate post dominator      @  PC=0xa50 (lstm.1.sm_75.ptx:425) mov.u32 %r58, %tid.x;

GPGPU-Sim PTX: 14 (potential) branch divergence @  PC=0xad8 (lstm.1.sm_75.ptx:448) @%p15 bra $L__BB0_20;

GPGPU-Sim PTX:    immediate post dominator      @  PC=0xd50 (lstm.1.sm_75.ptx:539) mov.u32 %r56, %tid.x;

GPGPU-Sim PTX: 15 (potential) branch divergence @  PC=0xae0 (lstm.1.sm_75.ptx:449) bra.uni $L__BB0_19;

GPGPU-Sim PTX:    immediate post dominator      @  PC=0xbb8 (lstm.1.sm_75.ptx:480) add.f64 %fd247, %fd31, %fd31;

GPGPU-Sim PTX: 16 (potential) branch divergence @  PC=0xbb0 (lstm.1.sm_75.ptx:477) bra.uni $L__BB0_21;

GPGPU-Sim PTX:    immediate post dominator      @  PC=0xd50 (lstm.1.sm_75.ptx:539) mov.u32 %r56, %tid.x;

GPGPU-Sim PTX: 17 (potential) branch divergence @  PC=0xdc8 (lstm.1.sm_75.ptx:554) @%p17 bra $L__BB0_24;

GPGPU-Sim PTX:    immediate post dominator      @  PC=0xdf0 (lstm.1.sm_75.ptx:563) mov.u32 %r57, %tid.x;

GPGPU-Sim PTX: 18 (potential) branch divergence @  PC=0xde0 (lstm.1.sm_75.ptx:558) @%p18 bra $L__BB0_24;

GPGPU-Sim PTX:    immediate post dominator      @  PC=0xdf0 (lstm.1.sm_75.ptx:563) mov.u32 %r57, %tid.x;

GPGPU-Sim PTX: 19 (potential) branch divergence @  PC=0xe60 (lstm.1.sm_75.ptx:577) @%p19 bra $L__BB0_27;

GPGPU-Sim PTX:    immediate post dominator      @  PC=0xe88 (lstm.1.sm_75.ptx:586) ld.global.f64 %fd323, [%rd11];

GPGPU-Sim PTX: 20 (potential) branch divergence @  PC=0xe78 (lstm.1.sm_75.ptx:581) @%p20 bra $L__BB0_27;

GPGPU-Sim PTX:    immediate post dominator      @  PC=0xe88 (lstm.1.sm_75.ptx:586) ld.global.f64 %fd323, [%rd11];

GPGPU-Sim PTX: 21 (potential) branch divergence @  PC=0xeb0 (lstm.1.sm_75.ptx:591) @%p21 bra $L__BB0_30;

GPGPU-Sim PTX:    immediate post dominator      @  PC=0xed8 (lstm.1.sm_75.ptx:600) mul.f64 %fd327, %fd14, %fd416;

GPGPU-Sim PTX: 22 (potential) branch divergence @  PC=0xec8 (lstm.1.sm_75.ptx:595) @%p22 bra $L__BB0_30;

GPGPU-Sim PTX:    immediate post dominator      @  PC=0xed8 (lstm.1.sm_75.ptx:600) mul.f64 %fd327, %fd14, %fd416;

GPGPU-Sim PTX: 23 (potential) branch divergence @  PC=0xf10 (lstm.1.sm_75.ptx:613) @%p23 bra $L__BB0_32;

GPGPU-Sim PTX:    immediate post dominator      @  PC=0x1188 (lstm.1.sm_75.ptx:704) mul.f64 %fd393, %fd417, %fd418;

GPGPU-Sim PTX: 24 (potential) branch divergence @  PC=0xf18 (lstm.1.sm_75.ptx:614) bra.uni $L__BB0_31;

GPGPU-Sim PTX:    immediate post dominator      @  PC=0xff0 (lstm.1.sm_75.ptx:645) add.f64 %fd328, %fd45, %fd45;

GPGPU-Sim PTX: 25 (potential) branch divergence @  PC=0xfe8 (lstm.1.sm_75.ptx:642) bra.uni $L__BB0_33;

GPGPU-Sim PTX:    immediate post dominator      @  PC=0x1188 (lstm.1.sm_75.ptx:704) mul.f64 %fd393, %fd417, %fd418;

GPGPU-Sim PTX: 26 (potential) branch divergence @  PC=0x11a0 (lstm.1.sm_75.ptx:707) @%p12 bra $L__BB0_37;

GPGPU-Sim PTX:    immediate post dominator      @  PC=0x1280 (lstm.1.sm_75.ptx:741) ret;

GPGPU-Sim PTX: 27 (potential) branch divergence @  PC=0x1260 (lstm.1.sm_75.ptx:734) @%p26 bra $L__BB0_35;

GPGPU-Sim PTX:    immediate post dominator      @  PC=0x1268 (lstm.1.sm_75.ptx:736) ld.param.u64 %rd70, [_Z11ExecuteLSTMPdS_S_S_S_S_S_S_S_S_S_S_S_S_S__param_14];

GPGPU-Sim PTX: ... end of reconvergence points for _Z11ExecuteLSTMPdS_S_S_S_S_S_S_S_S_S_S_S_S_S_
GPGPU-Sim PTX: ... done pre-decoding instructions for '_Z11ExecuteLSTMPdS_S_S_S_S_S_S_S_S_S_S_S_S_S_'.
GPGPU-Sim PTX: pushing kernel '_Z11ExecuteLSTMPdS_S_S_S_S_S_S_S_S_S_S_S_S_S_' to stream 0, gridDim= (32,1,1) blockDim = (256,1,1) 
GPGPU-Sim uArch: Shader 0 bind to kernel 1 '_Z11ExecuteLSTMPdS_S_S_S_S_S_S_S_S_S_S_S_S_S_'
GPGPU-Sim uArch: CTA/core = 3, limited by: regs
GPGPU-Sim: Reconfigure L1 cache to 64KB
GPGPU-Sim uArch: Shader 1 bind to kernel 1 '_Z11ExecuteLSTMPdS_S_S_S_S_S_S_S_S_S_S_S_S_S_'
GPGPU-Sim uArch: Shader 2 bind to kernel 1 '_Z11ExecuteLSTMPdS_S_S_S_S_S_S_S_S_S_S_S_S_S_'
GPGPU-Sim uArch: Shader 3 bind to kernel 1 '_Z11ExecuteLSTMPdS_S_S_S_S_S_S_S_S_S_S_S_S_S_'
GPGPU-Sim uArch: Shader 4 bind to kernel 1 '_Z11ExecuteLSTMPdS_S_S_S_S_S_S_S_S_S_S_S_S_S_'
GPGPU-Sim uArch: Shader 5 bind to kernel 1 '_Z11ExecuteLSTMPdS_S_S_S_S_S_S_S_S_S_S_S_S_S_'
GPGPU-Sim uArch: Shader 6 bind to kernel 1 '_Z11ExecuteLSTMPdS_S_S_S_S_S_S_S_S_S_S_S_S_S_'
GPGPU-Sim uArch: Shader 7 bind to kernel 1 '_Z11ExecuteLSTMPdS_S_S_S_S_S_S_S_S_S_S_S_S_S_'
GPGPU-Sim uArch: Shader 8 bind to kernel 1 '_Z11ExecuteLSTMPdS_S_S_S_S_S_S_S_S_S_S_S_S_S_'
GPGPU-Sim uArch: Shader 9 bind to kernel 1 '_Z11ExecuteLSTMPdS_S_S_S_S_S_S_S_S_S_S_S_S_S_'
GPGPU-Sim uArch: Shader 10 bind to kernel 1 '_Z11ExecuteLSTMPdS_S_S_S_S_S_S_S_S_S_S_S_S_S_'
GPGPU-Sim uArch: Shader 11 bind to kernel 1 '_Z11ExecuteLSTMPdS_S_S_S_S_S_S_S_S_S_S_S_S_S_'
GPGPU-Sim uArch: Shader 12 bind to kernel 1 '_Z11ExecuteLSTMPdS_S_S_S_S_S_S_S_S_S_S_S_S_S_'
GPGPU-Sim uArch: Shader 13 bind to kernel 1 '_Z11ExecuteLSTMPdS_S_S_S_S_S_S_S_S_S_S_S_S_S_'
GPGPU-Sim uArch: Shader 14 bind to kernel 1 '_Z11ExecuteLSTMPdS_S_S_S_S_S_S_S_S_S_S_S_S_S_'
GPGPU-Sim uArch: Shader 15 bind to kernel 1 '_Z11ExecuteLSTMPdS_S_S_S_S_S_S_S_S_S_S_S_S_S_'
GPGPU-Sim uArch: Shader 16 bind to kernel 1 '_Z11ExecuteLSTMPdS_S_S_S_S_S_S_S_S_S_S_S_S_S_'
GPGPU-Sim uArch: Shader 17 bind to kernel 1 '_Z11ExecuteLSTMPdS_S_S_S_S_S_S_S_S_S_S_S_S_S_'
GPGPU-Sim uArch: Shader 18 bind to kernel 1 '_Z11ExecuteLSTMPdS_S_S_S_S_S_S_S_S_S_S_S_S_S_'
GPGPU-Sim uArch: Shader 19 bind to kernel 1 '_Z11ExecuteLSTMPdS_S_S_S_S_S_S_S_S_S_S_S_S_S_'
GPGPU-Sim uArch: Shader 20 bind to kernel 1 '_Z11ExecuteLSTMPdS_S_S_S_S_S_S_S_S_S_S_S_S_S_'
GPGPU-Sim uArch: Shader 21 bind to kernel 1 '_Z11ExecuteLSTMPdS_S_S_S_S_S_S_S_S_S_S_S_S_S_'
GPGPU-Sim uArch: Shader 22 bind to kernel 1 '_Z11ExecuteLSTMPdS_S_S_S_S_S_S_S_S_S_S_S_S_S_'
GPGPU-Sim uArch: Shader 23 bind to kernel 1 '_Z11ExecuteLSTMPdS_S_S_S_S_S_S_S_S_S_S_S_S_S_'
GPGPU-Sim uArch: Shader 24 bind to kernel 1 '_Z11ExecuteLSTMPdS_S_S_S_S_S_S_S_S_S_S_S_S_S_'
GPGPU-Sim uArch: Shader 25 bind to kernel 1 '_Z11ExecuteLSTMPdS_S_S_S_S_S_S_S_S_S_S_S_S_S_'
GPGPU-Sim uArch: Shader 26 bind to kernel 1 '_Z11ExecuteLSTMPdS_S_S_S_S_S_S_S_S_S_S_S_S_S_'
GPGPU-Sim uArch: Shader 27 bind to kernel 1 '_Z11ExecuteLSTMPdS_S_S_S_S_S_S_S_S_S_S_S_S_S_'
GPGPU-Sim uArch: Shader 28 bind to kernel 1 '_Z11ExecuteLSTMPdS_S_S_S_S_S_S_S_S_S_S_S_S_S_'
GPGPU-Sim uArch: Shader 29 bind to kernel 1 '_Z11ExecuteLSTMPdS_S_S_S_S_S_S_S_S_S_S_S_S_S_'
Destroy streams for kernel 1: size 0
kernel_name = _Z11ExecuteLSTMPdS_S_S_S_S_S_S_S_S_S_S_S_S_S_ 
kernel_launch_uid = 1 
gpu_sim_cycle = 168465
gpu_sim_insn = 11299904
gpu_ipc =      67.0757
gpu_tot_sim_cycle = 168465
gpu_tot_sim_insn = 11299904
gpu_tot_ipc =      67.0757
gpu_tot_issued_cta = 32
gpu_occupancy = 24.8792% 
gpu_tot_occupancy = 24.8792% 
max_total_param_size = 0
gpu_stall_dramfull = 3519
gpu_stall_icnt2sh    = 0
partiton_level_parallism =       2.0006
partiton_level_parallism_total  =       2.0006
partiton_level_parallism_util =       2.9493
partiton_level_parallism_util_total  =       2.9493
L2_BW  =      87.3844 GB/Sec
L2_BW_total  =      87.3844 GB/Sec
gpu_total_sim_rate=15479

========= Core cache stats =========
L1I_cache:
	L1I_total_cache_accesses = 0
	L1I_total_cache_misses = 0
	L1I_total_cache_pending_hits = 0
	L1I_total_cache_reservation_fails = 0
L1D_cache:
	L1D_cache_core[0]: Access = 53656, Miss = 11233, Miss_rate = 0.209, Pending_hits = 33192, Reservation_fails = 374
	L1D_cache_core[1]: Access = 53656, Miss = 11233, Miss_rate = 0.209, Pending_hits = 35051, Reservation_fails = 479
	L1D_cache_core[2]: Access = 26828, Miss = 11233, Miss_rate = 0.419, Pending_hits = 12191, Reservation_fails = 356
	L1D_cache_core[3]: Access = 26828, Miss = 11233, Miss_rate = 0.419, Pending_hits = 11372, Reservation_fails = 346
	L1D_cache_core[4]: Access = 26828, Miss = 11233, Miss_rate = 0.419, Pending_hits = 10667, Reservation_fails = 346
	L1D_cache_core[5]: Access = 26828, Miss = 11233, Miss_rate = 0.419, Pending_hits = 10426, Reservation_fails = 319
	L1D_cache_core[6]: Access = 26828, Miss = 11233, Miss_rate = 0.419, Pending_hits = 11165, Reservation_fails = 372
	L1D_cache_core[7]: Access = 26828, Miss = 11233, Miss_rate = 0.419, Pending_hits = 11236, Reservation_fails = 333
	L1D_cache_core[8]: Access = 26828, Miss = 11233, Miss_rate = 0.419, Pending_hits = 12184, Reservation_fails = 370
	L1D_cache_core[9]: Access = 26828, Miss = 11233, Miss_rate = 0.419, Pending_hits = 10448, Reservation_fails = 312
	L1D_cache_core[10]: Access = 26828, Miss = 11233, Miss_rate = 0.419, Pending_hits = 12266, Reservation_fails = 342
	L1D_cache_core[11]: Access = 26828, Miss = 11233, Miss_rate = 0.419, Pending_hits = 12894, Reservation_fails = 308
	L1D_cache_core[12]: Access = 26828, Miss = 11233, Miss_rate = 0.419, Pending_hits = 12722, Reservation_fails = 348
	L1D_cache_core[13]: Access = 26828, Miss = 11233, Miss_rate = 0.419, Pending_hits = 10218, Reservation_fails = 318
	L1D_cache_core[14]: Access = 26828, Miss = 11233, Miss_rate = 0.419, Pending_hits = 13261, Reservation_fails = 330
	L1D_cache_core[15]: Access = 26828, Miss = 11233, Miss_rate = 0.419, Pending_hits = 12164, Reservation_fails = 318
	L1D_cache_core[16]: Access = 26828, Miss = 11233, Miss_rate = 0.419, Pending_hits = 13213, Reservation_fails = 337
	L1D_cache_core[17]: Access = 26828, Miss = 11233, Miss_rate = 0.419, Pending_hits = 10436, Reservation_fails = 321
	L1D_cache_core[18]: Access = 26828, Miss = 11233, Miss_rate = 0.419, Pending_hits = 13014, Reservation_fails = 311
	L1D_cache_core[19]: Access = 26828, Miss = 11233, Miss_rate = 0.419, Pending_hits = 12764, Reservation_fails = 312
	L1D_cache_core[20]: Access = 26828, Miss = 11233, Miss_rate = 0.419, Pending_hits = 12882, Reservation_fails = 312
	L1D_cache_core[21]: Access = 26828, Miss = 11233, Miss_rate = 0.419, Pending_hits = 12527, Reservation_fails = 327
	L1D_cache_core[22]: Access = 26828, Miss = 11233, Miss_rate = 0.419, Pending_hits = 12821, Reservation_fails = 341
	L1D_cache_core[23]: Access = 26828, Miss = 11233, Miss_rate = 0.419, Pending_hits = 12719, Reservation_fails = 309
	L1D_cache_core[24]: Access = 26828, Miss = 11233, Miss_rate = 0.419, Pending_hits = 13357, Reservation_fails = 340
	L1D_cache_core[25]: Access = 26828, Miss = 11233, Miss_rate = 0.419, Pending_hits = 12189, Reservation_fails = 308
	L1D_cache_core[26]: Access = 26828, Miss = 11233, Miss_rate = 0.419, Pending_hits = 13196, Reservation_fails = 335
	L1D_cache_core[27]: Access = 26828, Miss = 11233, Miss_rate = 0.419, Pending_hits = 12239, Reservation_fails = 319
	L1D_cache_core[28]: Access = 26828, Miss = 11233, Miss_rate = 0.419, Pending_hits = 11844, Reservation_fails = 315
	L1D_cache_core[29]: Access = 26828, Miss = 11233, Miss_rate = 0.419, Pending_hits = 12568, Reservation_fails = 319
	L1D_total_cache_accesses = 858496
	L1D_total_cache_misses = 336990
	L1D_total_cache_miss_rate = 0.3925
	L1D_total_cache_pending_hits = 407226
	L1D_total_cache_reservation_fails = 10077
	L1D_cache_data_port_util = 0.026
	L1D_cache_fill_port_util = 0.075
L1C_cache:
	L1C_total_cache_accesses = 0
	L1C_total_cache_misses = 0
	L1C_total_cache_pending_hits = 0
	L1C_total_cache_reservation_fails = 0
L1T_cache:
	L1T_total_cache_accesses = 0
	L1T_total_cache_misses = 0
	L1T_total_cache_pending_hits = 0
	L1T_total_cache_reservation_fails = 0

Total_core_cache_stats:
	Total_core_cache_stats_breakdown[GLOBAL_ACC_R][HIT] = 114246
	Total_core_cache_stats_breakdown[GLOBAL_ACC_R][HIT_RESERVED] = 407226
	Total_core_cache_stats_breakdown[GLOBAL_ACC_R][MISS] = 84360
	Total_core_cache_stats_breakdown[GLOBAL_ACC_R][RESERVATION_FAIL] = 10077
	Total_core_cache_stats_breakdown[GLOBAL_ACC_R][SECTOR_MISS] = 252600
	Total_core_cache_stats_breakdown[GLOBAL_ACC_R][MSHR_HIT] = 407226
	Total_core_cache_stats_breakdown[LOCAL_ACC_R][HIT] = 0
	Total_core_cache_stats_breakdown[LOCAL_ACC_R][HIT_RESERVED] = 0
	Total_core_cache_stats_breakdown[LOCAL_ACC_R][MISS] = 0
	Total_core_cache_stats_breakdown[LOCAL_ACC_R][RESERVATION_FAIL] = 0
	Total_core_cache_stats_breakdown[LOCAL_ACC_R][SECTOR_MISS] = 0
	Total_core_cache_stats_breakdown[LOCAL_ACC_R][MSHR_HIT] = 0
	Total_core_cache_stats_breakdown[CONST_ACC_R][HIT] = 0
	Total_core_cache_stats_breakdown[CONST_ACC_R][HIT_RESERVED] = 0
	Total_core_cache_stats_breakdown[CONST_ACC_R][MISS] = 0
	Total_core_cache_stats_breakdown[CONST_ACC_R][RESERVATION_FAIL] = 0
	Total_core_cache_stats_breakdown[CONST_ACC_R][SECTOR_MISS] = 0
	Total_core_cache_stats_breakdown[CONST_ACC_R][MSHR_HIT] = 0
	Total_core_cache_stats_breakdown[TEXTURE_ACC_R][HIT] = 0
	Total_core_cache_stats_breakdown[TEXTURE_ACC_R][HIT_RESERVED] = 0
	Total_core_cache_stats_breakdown[TEXTURE_ACC_R][MISS] = 0
	Total_core_cache_stats_breakdown[TEXTURE_ACC_R][RESERVATION_FAIL] = 0
	Total_core_cache_stats_breakdown[TEXTURE_ACC_R][SECTOR_MISS] = 0
	Total_core_cache_stats_breakdown[TEXTURE_ACC_R][MSHR_HIT] = 0
	Total_core_cache_stats_breakdown[GLOBAL_ACC_W][HIT] = 34
	Total_core_cache_stats_breakdown[GLOBAL_ACC_W][HIT_RESERVED] = 0
	Total_core_cache_stats_breakdown[GLOBAL_ACC_W][MISS] = 30
	Total_core_cache_stats_breakdown[GLOBAL_ACC_W][RESERVATION_FAIL] = 0
	Total_core_cache_stats_breakdown[GLOBAL_ACC_W][SECTOR_MISS] = 0
	Total_core_cache_stats_breakdown[GLOBAL_ACC_W][MSHR_HIT] = 0
	Total_core_cache_stats_breakdown[LOCAL_ACC_W][HIT] = 0
	Total_core_cache_stats_breakdown[LOCAL_ACC_W][HIT_RESERVED] = 0
	Total_core_cache_stats_breakdown[LOCAL_ACC_W][MISS] = 0
	Total_core_cache_stats_breakdown[LOCAL_ACC_W][RESERVATION_FAIL] = 0
	Total_core_cache_stats_breakdown[LOCAL_ACC_W][SECTOR_MISS] = 0
	Total_core_cache_stats_breakdown[LOCAL_ACC_W][MSHR_HIT] = 0
	Total_core_cache_stats_breakdown[L1_WRBK_ACC][HIT] = 0
	Total_core_cache_stats_breakdown[L1_WRBK_ACC][HIT_RESERVED] = 0
	Total_core_cache_stats_breakdown[L1_WRBK_ACC][MISS] = 0
	Total_core_cache_stats_breakdown[L1_WRBK_ACC][RESERVATION_FAIL] = 0
	Total_core_cache_stats_breakdown[L1_WRBK_ACC][SECTOR_MISS] = 0
	Total_core_cache_stats_breakdown[L1_WRBK_ACC][MSHR_HIT] = 0
	Total_core_cache_stats_breakdown[L2_WRBK_ACC][HIT] = 0
	Total_core_cache_stats_breakdown[L2_WRBK_ACC][HIT_RESERVED] = 0
	Total_core_cache_stats_breakdown[L2_WRBK_ACC][MISS] = 0
	Total_core_cache_stats_breakdown[L2_WRBK_ACC][RESERVATION_FAIL] = 0
	Total_core_cache_stats_breakdown[L2_WRBK_ACC][SECTOR_MISS] = 0
	Total_core_cache_stats_breakdown[L2_WRBK_ACC][MSHR_HIT] = 0
	Total_core_cache_stats_breakdown[INST_ACC_R][HIT] = 0
	Total_core_cache_stats_breakdown[INST_ACC_R][HIT_RESERVED] = 0
	Total_core_cache_stats_breakdown[INST_ACC_R][MISS] = 0
	Total_core_cache_stats_breakdown[INST_ACC_R][RESERVATION_FAIL] = 0
	Total_core_cache_stats_breakdown[INST_ACC_R][SECTOR_MISS] = 0
	Total_core_cache_stats_breakdown[INST_ACC_R][MSHR_HIT] = 0
	Total_core_cache_stats_breakdown[L1_WR_ALLOC_R][HIT] = 0
	Total_core_cache_stats_breakdown[L1_WR_ALLOC_R][HIT_RESERVED] = 0
	Total_core_cache_stats_breakdown[L1_WR_ALLOC_R][MISS] = 0
	Total_core_cache_stats_breakdown[L1_WR_ALLOC_R][RESERVATION_FAIL] = 0
	Total_core_cache_stats_breakdown[L1_WR_ALLOC_R][SECTOR_MISS] = 0
	Total_core_cache_stats_breakdown[L1_WR_ALLOC_R][MSHR_HIT] = 0
	Total_core_cache_stats_breakdown[L2_WR_ALLOC_R][HIT] = 0
	Total_core_cache_stats_breakdown[L2_WR_ALLOC_R][HIT_RESERVED] = 0
	Total_core_cache_stats_breakdown[L2_WR_ALLOC_R][MISS] = 0
	Total_core_cache_stats_breakdown[L2_WR_ALLOC_R][RESERVATION_FAIL] = 0
	Total_core_cache_stats_breakdown[L2_WR_ALLOC_R][SECTOR_MISS] = 0
	Total_core_cache_stats_breakdown[L2_WR_ALLOC_R][MSHR_HIT] = 0
	Total_core_cache_stats_breakdown[GLOBAL_ACC_R][TOTAL_ACCESS] = 858432
	Total_core_cache_stats_breakdown[GLOBAL_ACC_W][TOTAL_ACCESS] = 64

Total_core_cache_fail_stats:
	Total_core_cache_fail_stats_breakdown[GLOBAL_ACC_R][MISS_QUEUE_FULL] = 10077
ctas_completed 32, Shader 0 warp_id issue ditsribution:
warp_id:
0, 1, 2, 3, 4, 5, 6, 7, 8, 9, 10, 11, 12, 13, 14, 15, 
distro:
2257, 1387, 1387, 1387, 1387, 1387, 1387, 1387, 2257, 1387, 1387, 1387, 1387, 1387, 1387, 1387, 
gpgpu_n_tot_thrd_icount = 12253184
gpgpu_n_tot_w_icount = 382912
gpgpu_n_stall_shd_mem = 107144
gpgpu_n_mem_read_local = 0
gpgpu_n_mem_write_local = 0
gpgpu_n_mem_read_global = 336960
gpgpu_n_mem_write_global = 64
gpgpu_n_mem_texture = 0
gpgpu_n_mem_const = 0
gpgpu_n_load_insn  = 3414336
gpgpu_n_store_insn = 64
gpgpu_n_shmem_insn = 841984
gpgpu_n_sstarr_insn = 0
gpgpu_n_tex_insn = 0
gpgpu_n_const_mem_insn = 0
gpgpu_n_param_mem_insn = 147648
gpgpu_n_shmem_bkconflict = 0
gpgpu_n_cache_bkconflict = 0
gpgpu_n_intrawarp_mshr_merge = 0
gpgpu_n_cmem_portconflict = 0
gpgpu_stall_shd_mem[c_mem][resource_stall] = 0
gpgpu_stall_shd_mem[s_mem][bk_conf] = 512
gpgpu_stall_shd_mem[gl_mem][resource_stall] = 136
gpgpu_stall_shd_mem[gl_mem][coal_stall] = 106496
gpgpu_stall_shd_mem[gl_mem][data_port_stall] = 0
gpu_reg_bank_conflict_stalls = 0
Warp Occupancy Distribution:
Stall:148365	W0_Idle:2290561	W0_Scoreboard:15034134	W1:27840	W2:0	W3:0	W4:0	W5:0	W6:0	W7:0	W8:0	W9:0	W10:0	W11:0	W12:64	W13:0	W14:64	W15:32	W16:32	W17:0	W18:64	W19:0	W20:0	W21:0	W22:0	W23:64	W24:0	W25:0	W26:0	W27:0	W28:0	W29:0	W30:0	W31:96	W32:354656
single_issue_nums: WS0:116608	WS1:88768	WS2:88768	WS3:88768	
dual_issue_nums: WS0:0	WS1:0	WS2:0	WS3:0	
traffic_breakdown_coretomem[GLOBAL_ACC_R] = 2695680 {8:336960,}
traffic_breakdown_coretomem[GLOBAL_ACC_W] = 2560 {40:64,}
traffic_breakdown_memtocore[GLOBAL_ACC_R] = 13478400 {40:336960,}
traffic_breakdown_memtocore[GLOBAL_ACC_W] = 512 {8:64,}
maxmflatency = 2620 
max_icnt2mem_latency = 2422 
maxmrqlatency = 14 
max_icnt2sh_latency = 42 
averagemflatency = 303 
avg_icnt2mem_latency = 101 
avg_mrq_latency = 0 
avg_icnt2sh_latency = 2 
mrq_lat_table:768 	97 	20 	43 	0 	0 	0 	0 	0 	0 	0 	0 	0 	0 	0 	0 	0 	0 	0 	0 	0 	0 	0 	0 	0 	0 	0 	0 	0 	0 	0 	0 	
dq_lat_table:0 	0 	0 	0 	0 	0 	0 	0 	0 	0 	0 	0 	0 	0 	0 	0 	0 	0 	0 	0 	0 	0 	0 	0 	0 	0 	0 	0 	0 	0 	0 	0 	
mf_lat_table:0 	0 	0 	0 	0 	0 	0 	288564 	34824 	3976 	4060 	5600 	0 	0 	0 	0 	0 	0 	0 	0 	0 	0 	0 	0 	0 	0 	0 	0 	0 	0 	0 	0 	
icnt2mem_lat_table:0 	0 	0 	0 	0 	312734 	7803 	2648 	1498 	3353 	4816 	4172 	0 	0 	0 	0 	0 	0 	0 	0 	0 	0 	0 	0 	
icnt2sh_lat_table:0 	327137 	7987 	1188 	666 	46 	0 	0 	0 	0 	0 	0 	0 	0 	0 	0 	0 	0 	0 	0 	0 	0 	0 	0 	
mf_lat_pw_table:0 	0 	0 	0 	0 	0 	0 	1193 	164 	12 	26 	38 	0 	0 	0 	0 	0 	0 	0 	0 	0 	0 	0 	0 	0 	0 	0 	0 	0 	0 	0 	0 	
maximum concurrent accesses to same row:
dram[0]:         0         0         0         0         0         0         0         0         0         0         0         0         0         0         0         0 
dram[1]:         0         0         0         0         0         0         0         0         0         0         0         0         0         0         0         0 
dram[2]:         0         0         0         0         0         0         0         0         0         0         0         0         0         0         0         0 
dram[3]:         0         0         0         0         0         0         0         0         0         0         0         0         0         0         0         0 
dram[4]:         0         0         0         0         0         0         0         0         0         0         0         0         0         0         0         0 
dram[5]:         0         0         0         0         0         0         0         0         0         0         0         0         0         0         0         0 
dram[6]:         0         0         0         0         0         0         0         0         0         0         0         0         0         0         0         0 
dram[7]:         0         0         0         0         0         0         0         0         0         0         0         0         0         0         0         0 
dram[8]:         0         0         0         0         0         0         0         0         0         0         0         0         0         0         0         0 
dram[9]:         0         0         0         0         0         0         0         0         0         0         0         0         0         0         0         0 
dram[10]:         0         0         0         0         0         0         0         0         0         0         0         0         0         0         0         0 
dram[11]:         0         0         0         0         0         0         0         0         0         0         0         0         0         0         0         0 
maximum service time to same row:
dram[0]:         0         0         0         0         0         0         0         0         0         0         0         0         0         0         0         0 
dram[1]:         0         0         0         0         0         0         0         0         0         0         0         0         0         0         0         0 
dram[2]:         0         0         0         0         0         0         0         0         0         0         0         0         0         0         0         0 
dram[3]:         0         0         0         0         0         0         0         0         0         0         0         0         0         0         0         0 
dram[4]:         0         0         0         0         0         0         0         0         0         0         0         0         0         0         0         0 
dram[5]:         0         0         0         0         0         0         0         0         0         0         0         0         0         0         0         0 
dram[6]:         0         0         0         0         0         0         0         0         0         0         0         0         0         0         0         0 
dram[7]:         0         0         0         0         0         0         0         0         0         0         0         0         0         0         0         0 
dram[8]:         0         0         0         0         0         0         0         0         0         0         0         0         0         0         0         0 
dram[9]:         0         0         0         0         0         0         0         0         0         0         0         0         0         0         0         0 
dram[10]:         0         0         0         0         0         0         0         0         0         0         0         0         0         0         0         0 
dram[11]:         0         0         0         0         0         0         0         0         0         0         0         0         0         0         0         0 
average row accesses per activate:
dram[0]:      -nan      -nan       inf       inf      -nan      -nan      -nan      -nan      -nan      -nan      -nan      -nan      -nan      -nan      -nan      -nan 
dram[1]:      -nan      -nan       inf       inf      -nan      -nan      -nan      -nan      -nan      -nan      -nan      -nan      -nan      -nan      -nan      -nan 
dram[2]:      -nan      -nan       inf       inf      -nan      -nan      -nan      -nan      -nan      -nan      -nan      -nan      -nan      -nan      -nan      -nan 
dram[3]:      -nan      -nan       inf       inf      -nan      -nan      -nan      -nan      -nan      -nan      -nan      -nan      -nan      -nan      -nan      -nan 
dram[4]:      -nan      -nan       inf       inf      -nan      -nan      -nan      -nan      -nan      -nan      -nan      -nan      -nan      -nan      -nan      -nan 
dram[5]:      -nan      -nan       inf       inf      -nan      -nan      -nan      -nan      -nan      -nan      -nan      -nan      -nan      -nan      -nan      -nan 
dram[6]:      -nan      -nan       inf       inf      -nan      -nan      -nan      -nan      -nan      -nan      -nan      -nan      -nan      -nan      -nan      -nan 
dram[7]:      -nan      -nan       inf       inf      -nan      -nan      -nan      -nan      -nan      -nan      -nan      -nan      -nan      -nan      -nan      -nan 
dram[8]:      -nan      -nan       inf       inf      -nan      -nan      -nan      -nan      -nan      -nan      -nan      -nan      -nan      -nan      -nan      -nan 
dram[9]:      -nan      -nan       inf       inf      -nan      -nan      -nan      -nan      -nan      -nan      -nan      -nan      -nan      -nan      -nan      -nan 
dram[10]:      -nan      -nan       inf       inf      -nan      -nan      -nan      -nan      -nan      -nan      -nan      -nan      -nan      -nan      -nan      -nan 
dram[11]:      -nan      -nan       inf       inf      -nan      -nan      -nan      -nan      -nan      -nan      -nan      -nan      -nan      -nan      -nan      -nan 
average row locality = 928/0 = inf
number of total memory accesses made:
dram[0]:         0         0         0         0         0         0         0         0         0         0         0         0         0         0         0         0 
dram[1]:         0         0         0         0         0         0         0         0         0         0         0         0         0         0         0         0 
dram[2]:         0         0         0         0         0         0         0         0         0         0         0         0         0         0         0         0 
dram[3]:         0         0         0         0         0         0         0         0         0         0         0         0         0         0         0         0 
dram[4]:         0         0         0         0         0         0         0         0         0         0         0         0         0         0         0         0 
dram[5]:         0         0         0         0         0         0         0         0         0         0         0         0         0         0         0         0 
dram[6]:         0         0         0         0         0         0         0         0         0         0         0         0         0         0         0         0 
dram[7]:         0         0         0         0         0         0         0         0         0         0         0         0         0         0         0         0 
dram[8]:         0         0         0         0         0         0         0         0         0         0         0         0         0         0         0         0 
dram[9]:         0         0         0         0         0         0         0         0         0         0         0         0         0         0         0         0 
dram[10]:         0         0         0         0         0         0         0         0         0         0         0         0         0         0         0         0 
dram[11]:         0         0         0         0         0         0         0         0         0         0         0         0         0         0         0         0 
total accesses: 0
min_bank_accesses = 0!
min_chip_accesses = 0!
number of total read accesses:
dram[0]:         0         0        40        40         0         0         0         0         0         0         0         0         0         0         0         0 
dram[1]:         0         0        40        40         0         0         0         0         0         0         0         0         0         0         0         0 
dram[2]:         0         0        40        40         0         0         0         0         0         0         0         0         0         0         0         0 
dram[3]:         0         0        40        40         0         0         0         0         0         0         0         0         0         0         0         0 
dram[4]:         0         0        40        40         0         0         0         0         0         0         0         0         0         0         0         0 
dram[5]:         0         0        40        40         0         0         0         0         0         0         0         0         0         0         0         0 
dram[6]:         0         0        40        40         0         0         0         0         0         0         0         0         0         0         0         0 
dram[7]:         0         0        40        36         0         0         0         0         0         0         0         0         0         0         0         0 
dram[8]:         0         0        40        36         0         0         0         0         0         0         0         0         0         0         0         0 
dram[9]:         0         0        40        36         0         0         0         0         0         0         0         0         0         0         0         0 
dram[10]:         0         0        36        36         0         0         0         0         0         0         0         0         0         0         0         0 
dram[11]:         0         0        36        32         0         0         0         0         0         0         0         0         0         0         0         0 
total dram reads = 928
min_bank_accesses = 0!
chip skew: 80/68 = 1.18
number of total write accesses:
dram[0]:         0         0         0         0         0         0         0         0         0         0         0         0         0         0         0         0 
dram[1]:         0         0         0         0         0         0         0         0         0         0         0         0         0         0         0         0 
dram[2]:         0         0         0         0         0         0         0         0         0         0         0         0         0         0         0         0 
dram[3]:         0         0         0         0         0         0         0         0         0         0         0         0         0         0         0         0 
dram[4]:         0         0         0         0         0         0         0         0         0         0         0         0         0         0         0         0 
dram[5]:         0         0         0         0         0         0         0         0         0         0         0         0         0         0         0         0 
dram[6]:         0         0         0         0         0         0         0         0         0         0         0         0         0         0         0         0 
dram[7]:         0         0         0         0         0         0         0         0         0         0         0         0         0         0         0         0 
dram[8]:         0         0         0         0         0         0         0         0         0         0         0         0         0         0         0         0 
dram[9]:         0         0         0         0         0         0         0         0         0         0         0         0         0         0         0         0 
dram[10]:         0         0         0         0         0         0         0         0         0         0         0         0         0         0         0         0 
dram[11]:         0         0         0         0         0         0         0         0         0         0         0         0         0         0         0         0 
total dram writes = 0
min_bank_accesses = 0!
min_chip_accesses = 0!
average mf latency per bank:
dram[0]:     none      none       42271     42039    none      none      none      none      none      none      none      none      none      none      none      none  
dram[1]:     none      none       40418     39379    none      none      none      none      none      none      none      none      none      none      none      none  
dram[2]:     none      none       39587     39321    none      none      none      none      none      none      none      none      none      none      none      none  
dram[3]:     none      none       44093     43266    none      none      none      none      none      none      none      none      none      none      none      none  
dram[4]:     none      none       43264     42828    none      none      none      none      none      none      none      none      none      none      none      none  
dram[5]:     none      none       42879     42596    none      none      none      none      none      none      none      none      none      none      none      none  
dram[6]:     none      none       40341     39884    none      none      none      none      none      none      none      none      none      none      none      none  
dram[7]:     none      none       42806     46812    none      none      none      none      none      none      none      none      none      none      none      none  
dram[8]:     none      none       43149     47114    none      none      none      none      none      none      none      none      none      none      none      none  
dram[9]:     none      none       43115     47329    none      none      none      none      none      none      none      none      none      none      none      none  
dram[10]:     none      none       56217     55499    none      none      none      none      none      none      none      none      none      none      none      none  
dram[11]:     none      none       46781     51919    none      none      none      none      none      none      none      none      none      none      none      none  
maximum mf latency per bank:
dram[0]:       2170      2082      2280      2195       333       390       388       460         0         0         0         0         0         0         0         0
dram[1]:       2189      2191      2091      2006       354       348       358       370         0         0         0         0         0         0         0         0
dram[2]:       2128      2043      2263      2179       352       349       347       350         0         0         0         0         0         0         0         0
dram[3]:       2167      2164      2454      2369       445       349       355       348         0         0         0         0         0         0         0         0
dram[4]:       1702      1612      2455      2370      2612      2528       346       417         0         0         0         0         0         0         0         0
dram[5]:       1533      1449      2453      2368      2614      2529       355       355         0         0         0         0         0         0         0         0
dram[6]:       1842      1813      2453      2368      2611      2527       348       346         0         0         0         0         0         0         0         0
dram[7]:       1204      1201      2454      2369      2612      2527       416       352         0         0         0         0         0         0         0         0
dram[8]:        730       646      2453      2368      2612      2528       352       349         0         0         0         0         0         0         0         0
dram[9]:       2433      2348      2454      2369      2611      2527       355       339         0         0         0         0         0         0         0         0
dram[10]:       1802      1714      2592      2507      2612      2528       376       343         0         0         0         0         0         0         0         0
dram[11]:       2119      2035      1964      1878      2620      2536       343       345         0         0         0         0         0         0         0         0

Number of Memory Banks Accessed per Memory Operation per Warp (from 0):
0	0	0	0	0	0	0	0	0	0	0	0	0	0	0	0	0	0	0	0	0	0	0	0	0	0	0	0	0	0	0	0	0	0	0	0	0	0	0	0	0	0	0	0	0	0	0	0	0	0	0	0	0	0	0	0	0	0	0	0	0	0	0	0	0	0	0	0	0	0	0	0	0	0	0	0	0	0	0	0	0	0	0	0	0	0	0	0	0	0	0	0	0	0	0	0	0	0	0	0	0	0	0	0	0	0	0	0	0	0	0	0	0	0	0	0	0	0	0	0	0	0	0	0	0	0	0	0	0	0	0	0	0	0	0	0	0	0	0	0	0	0	0	0	0	0	0	0	0	0	0	0	0	0	0	0	0	0	0	0	0	0	0	0	0	0	0	0	0	0	0	0	0	0	0	0	0	0	0	0	0	0	0	0	0	0	0	0	0	0	0	0	
Average # of Memory Banks Accessed per Memory Operation per Warp=-nan

position of mrq chosen
0	0	0	0	0	0	0	0	0	0	0	0	0	0	0	0	0	0	0	0	0	0	0	0	0	0	0	0	0	0	0	0	0	0	0	0	0	0	0	0	0	0	0	0	0	0	0	0	0	0	0	0	0	0	0	0	0	0	0	0	0	0	0	0	

average position of mrq chosen = -nan
Memory Partition 0: 
Cache L2_bank_000:
MSHR contents

Cache L2_bank_001:
MSHR contents

In Dram Latency Queue (total = 0): 
DRAM[0]: 16 bks, busW=2 BL=16 CL=24, tRRD=12 tCCD=4, tRCD=24 tRAS=55 tRP=24 tRC=78
n_cmd=432021 n_nop=431939 n_act=2 n_pre=0 n_ref_event=0 n_req=80 n_rd=80 n_rd_L2_A=0 n_write=0 n_wr_bk=0 bw_util=0.0007407
n_activity=857 dram_eff=0.3734
bk0: 0a 432021i bk1: 0a 432023i bk2: 40a 431861i bk3: 40a 431871i bk4: 0a 432019i bk5: 0a 432020i bk6: 0a 432020i bk7: 0a 432021i bk8: 0a 432021i bk9: 0a 432021i bk10: 0a 432021i bk11: 0a 432021i bk12: 0a 432021i bk13: 0a 432021i bk14: 0a 432021i bk15: 0a 432021i 

------------------------------------------------------------------------

Row_Buffer_Locality = 1.000000
Row_Buffer_Locality_read = 1.000000
Row_Buffer_Locality_write = -nan
Bank_Level_Parallism = 1.245223
Bank_Level_Parallism_Col = 1.236422
Bank_Level_Parallism_Ready = 1.012500
write_to_read_ratio_blp_rw_average = 0.000000
GrpLevelPara = 1.236422 

BW Util details:
bwutil = 0.000741 
total_CMD = 432021 
util_bw = 320 
Wasted_Col = 88 
Wasted_Row = 0 
Idle = 431613 

BW Util Bottlenecks: 
RCDc_limit = 40 
RCDWRc_limit = 0 
WTRc_limit = 0 
RTWc_limit = 0 
CCDLc_limit = 64 
rwq = 0 
CCDLc_limit_alone = 64 
WTRc_limit_alone = 0 
RTWc_limit_alone = 0 

Commands details: 
total_CMD = 432021 
n_nop = 431939 
Read = 80 
Write = 0 
L2_Alloc = 0 
L2_WB = 0 
n_act = 2 
n_pre = 0 
n_ref = 0 
n_req = 80 
total_req = 80 

Dual Bus Interface Util: 
issued_total_row = 2 
issued_total_col = 80 
Row_Bus_Util =  0.000005 
CoL_Bus_Util = 0.000185 
Either_Row_CoL_Bus_Util = 0.000190 
Issued_on_Two_Bus_Simul_Util = 0.000000 
issued_two_Eff = 0.000000 
queue_avg = 0.000546 


dram_util_bins: 0 0 0 0 0 0 0 0 0 0
dram_eff_bins: 0 0 0 0 0 0 0 0 0 0
mrqq: max=5 avg=0.00054627
Memory Partition 1: 
Cache L2_bank_002:
MSHR contents

Cache L2_bank_003:
MSHR contents

In Dram Latency Queue (total = 0): 
DRAM[1]: 16 bks, busW=2 BL=16 CL=24, tRRD=12 tCCD=4, tRCD=24 tRAS=55 tRP=24 tRC=78
n_cmd=432021 n_nop=431939 n_act=2 n_pre=0 n_ref_event=0 n_req=80 n_rd=80 n_rd_L2_A=0 n_write=0 n_wr_bk=0 bw_util=0.0007407
n_activity=989 dram_eff=0.3236
bk0: 0a 432021i bk1: 0a 432022i bk2: 40a 431886i bk3: 40a 431883i bk4: 0a 432019i bk5: 0a 432020i bk6: 0a 432021i bk7: 0a 432021i bk8: 0a 432021i bk9: 0a 432021i bk10: 0a 432021i bk11: 0a 432021i bk12: 0a 432021i bk13: 0a 432021i bk14: 0a 432021i bk15: 0a 432021i 

------------------------------------------------------------------------

Row_Buffer_Locality = 1.000000
Row_Buffer_Locality_read = 1.000000
Row_Buffer_Locality_write = -nan
Bank_Level_Parallism = 1.113565
Bank_Level_Parallism_Col = 1.114286
Bank_Level_Parallism_Ready = 1.000000
write_to_read_ratio_blp_rw_average = 0.000000
GrpLevelPara = 1.114286 

BW Util details:
bwutil = 0.000741 
total_CMD = 432021 
util_bw = 320 
Wasted_Col = 106 
Wasted_Row = 0 
Idle = 431595 

BW Util Bottlenecks: 
RCDc_limit = 44 
RCDWRc_limit = 0 
WTRc_limit = 0 
RTWc_limit = 0 
CCDLc_limit = 62 
rwq = 0 
CCDLc_limit_alone = 62 
WTRc_limit_alone = 0 
RTWc_limit_alone = 0 

Commands details: 
total_CMD = 432021 
n_nop = 431939 
Read = 80 
Write = 0 
L2_Alloc = 0 
L2_WB = 0 
n_act = 2 
n_pre = 0 
n_ref = 0 
n_req = 80 
total_req = 80 

Dual Bus Interface Util: 
issued_total_row = 2 
issued_total_col = 80 
Row_Bus_Util =  0.000005 
CoL_Bus_Util = 0.000185 
Either_Row_CoL_Bus_Util = 0.000190 
Issued_on_Two_Bus_Simul_Util = 0.000000 
issued_two_Eff = 0.000000 
queue_avg = 0.000375 


dram_util_bins: 0 0 0 0 0 0 0 0 0 0
dram_eff_bins: 0 0 0 0 0 0 0 0 0 0
mrqq: max=3 avg=0.000374982
Memory Partition 2: 
Cache L2_bank_004:
MSHR contents

Cache L2_bank_005:
MSHR contents

In Dram Latency Queue (total = 0): 
DRAM[2]: 16 bks, busW=2 BL=16 CL=24, tRRD=12 tCCD=4, tRCD=24 tRAS=55 tRP=24 tRC=78
n_cmd=432021 n_nop=431939 n_act=2 n_pre=0 n_ref_event=0 n_req=80 n_rd=80 n_rd_L2_A=0 n_write=0 n_wr_bk=0 bw_util=0.0007407
n_activity=908 dram_eff=0.3524
bk0: 0a 432021i bk1: 0a 432022i bk2: 40a 431884i bk3: 40a 431899i bk4: 0a 432019i bk5: 0a 432020i bk6: 0a 432021i bk7: 0a 432021i bk8: 0a 432021i bk9: 0a 432021i bk10: 0a 432021i bk11: 0a 432021i bk12: 0a 432021i bk13: 0a 432021i bk14: 0a 432021i bk15: 0a 432021i 

------------------------------------------------------------------------

Row_Buffer_Locality = 1.000000
Row_Buffer_Locality_read = 1.000000
Row_Buffer_Locality_write = -nan
Bank_Level_Parallism = 1.111475
Bank_Level_Parallism_Col = 1.112211
Bank_Level_Parallism_Ready = 1.012500
write_to_read_ratio_blp_rw_average = 0.000000
GrpLevelPara = 1.112211 

BW Util details:
bwutil = 0.000741 
total_CMD = 432021 
util_bw = 320 
Wasted_Col = 101 
Wasted_Row = 0 
Idle = 431600 

BW Util Bottlenecks: 
RCDc_limit = 44 
RCDWRc_limit = 0 
WTRc_limit = 0 
RTWc_limit = 0 
CCDLc_limit = 57 
rwq = 0 
CCDLc_limit_alone = 57 
WTRc_limit_alone = 0 
RTWc_limit_alone = 0 

Commands details: 
total_CMD = 432021 
n_nop = 431939 
Read = 80 
Write = 0 
L2_Alloc = 0 
L2_WB = 0 
n_act = 2 
n_pre = 0 
n_ref = 0 
n_req = 80 
total_req = 80 

Dual Bus Interface Util: 
issued_total_row = 2 
issued_total_col = 80 
Row_Bus_Util =  0.000005 
CoL_Bus_Util = 0.000185 
Either_Row_CoL_Bus_Util = 0.000190 
Issued_on_Two_Bus_Simul_Util = 0.000000 
issued_two_Eff = 0.000000 
queue_avg = 0.000444 


dram_util_bins: 0 0 0 0 0 0 0 0 0 0
dram_eff_bins: 0 0 0 0 0 0 0 0 0 0
mrqq: max=3 avg=0.000444423
Memory Partition 3: 
Cache L2_bank_006:
MSHR contents

Cache L2_bank_007:
MSHR contents

In Dram Latency Queue (total = 0): 
DRAM[3]: 16 bks, busW=2 BL=16 CL=24, tRRD=12 tCCD=4, tRCD=24 tRAS=55 tRP=24 tRC=78
n_cmd=432021 n_nop=431939 n_act=2 n_pre=0 n_ref_event=0 n_req=80 n_rd=80 n_rd_L2_A=0 n_write=0 n_wr_bk=0 bw_util=0.0007407
n_activity=904 dram_eff=0.354
bk0: 0a 432021i bk1: 0a 432023i bk2: 40a 431897i bk3: 40a 431899i bk4: 0a 432019i bk5: 0a 432020i bk6: 0a 432020i bk7: 0a 432021i bk8: 0a 432021i bk9: 0a 432021i bk10: 0a 432021i bk11: 0a 432021i bk12: 0a 432021i bk13: 0a 432021i bk14: 0a 432021i bk15: 0a 432021i 

------------------------------------------------------------------------

Row_Buffer_Locality = 1.000000
Row_Buffer_Locality_read = 1.000000
Row_Buffer_Locality_write = -nan
Bank_Level_Parallism = 1.243346
Bank_Level_Parallism_Col = 1.232824
Bank_Level_Parallism_Ready = 1.012500
write_to_read_ratio_blp_rw_average = 0.000000
GrpLevelPara = 1.232824 

BW Util details:
bwutil = 0.000741 
total_CMD = 432021 
util_bw = 320 
Wasted_Col = 74 
Wasted_Row = 0 
Idle = 431627 

BW Util Bottlenecks: 
RCDc_limit = 40 
RCDWRc_limit = 0 
WTRc_limit = 0 
RTWc_limit = 0 
CCDLc_limit = 50 
rwq = 0 
CCDLc_limit_alone = 50 
WTRc_limit_alone = 0 
RTWc_limit_alone = 0 

Commands details: 
total_CMD = 432021 
n_nop = 431939 
Read = 80 
Write = 0 
L2_Alloc = 0 
L2_WB = 0 
n_act = 2 
n_pre = 0 
n_ref = 0 
n_req = 80 
total_req = 80 

Dual Bus Interface Util: 
issued_total_row = 2 
issued_total_col = 80 
Row_Bus_Util =  0.000005 
CoL_Bus_Util = 0.000185 
Either_Row_CoL_Bus_Util = 0.000190 
Issued_on_Two_Bus_Simul_Util = 0.000000 
issued_two_Eff = 0.000000 
queue_avg = 0.000435 


dram_util_bins: 0 0 0 0 0 0 0 0 0 0
dram_eff_bins: 0 0 0 0 0 0 0 0 0 0
mrqq: max=4 avg=0.000435164
Memory Partition 4: 
Cache L2_bank_008:
MSHR contents

Cache L2_bank_009:
MSHR contents

In Dram Latency Queue (total = 0): 
DRAM[4]: 16 bks, busW=2 BL=16 CL=24, tRRD=12 tCCD=4, tRCD=24 tRAS=55 tRP=24 tRC=78
n_cmd=432021 n_nop=431939 n_act=2 n_pre=0 n_ref_event=0 n_req=80 n_rd=80 n_rd_L2_A=0 n_write=0 n_wr_bk=0 bw_util=0.0007407
n_activity=945 dram_eff=0.3386
bk0: 0a 432021i bk1: 0a 432023i bk2: 40a 431885i bk3: 40a 431878i bk4: 0a 432019i bk5: 0a 432020i bk6: 0a 432020i bk7: 0a 432021i bk8: 0a 432021i bk9: 0a 432021i bk10: 0a 432021i bk11: 0a 432021i bk12: 0a 432021i bk13: 0a 432021i bk14: 0a 432021i bk15: 0a 432021i 

------------------------------------------------------------------------

Row_Buffer_Locality = 1.000000
Row_Buffer_Locality_read = 1.000000
Row_Buffer_Locality_write = -nan
Bank_Level_Parallism = 1.087879
Bank_Level_Parallism_Col = 1.088415
Bank_Level_Parallism_Ready = 1.012500
write_to_read_ratio_blp_rw_average = 0.000000
GrpLevelPara = 1.088415 

BW Util details:
bwutil = 0.000741 
total_CMD = 432021 
util_bw = 320 
Wasted_Col = 113 
Wasted_Row = 0 
Idle = 431588 

BW Util Bottlenecks: 
RCDc_limit = 48 
RCDWRc_limit = 0 
WTRc_limit = 0 
RTWc_limit = 0 
CCDLc_limit = 65 
rwq = 0 
CCDLc_limit_alone = 65 
WTRc_limit_alone = 0 
RTWc_limit_alone = 0 

Commands details: 
total_CMD = 432021 
n_nop = 431939 
Read = 80 
Write = 0 
L2_Alloc = 0 
L2_WB = 0 
n_act = 2 
n_pre = 0 
n_ref = 0 
n_req = 80 
total_req = 80 

Dual Bus Interface Util: 
issued_total_row = 2 
issued_total_col = 80 
Row_Bus_Util =  0.000005 
CoL_Bus_Util = 0.000185 
Either_Row_CoL_Bus_Util = 0.000190 
Issued_on_Two_Bus_Simul_Util = 0.000000 
issued_two_Eff = 0.000000 
queue_avg = 0.000389 


dram_util_bins: 0 0 0 0 0 0 0 0 0 0
dram_eff_bins: 0 0 0 0 0 0 0 0 0 0
mrqq: max=3 avg=0.00038887
Memory Partition 5: 
Cache L2_bank_010:
MSHR contents

Cache L2_bank_011:
MSHR contents

In Dram Latency Queue (total = 0): 
DRAM[5]: 16 bks, busW=2 BL=16 CL=24, tRRD=12 tCCD=4, tRCD=24 tRAS=55 tRP=24 tRC=78
n_cmd=432021 n_nop=431939 n_act=2 n_pre=0 n_ref_event=0 n_req=80 n_rd=80 n_rd_L2_A=0 n_write=0 n_wr_bk=0 bw_util=0.0007407
n_activity=872 dram_eff=0.367
[...]
RCDc_limit = 48 
RCDWRc_limit = 0 
WTRc_limit = 0 
RTWc_limit = 0 
CCDLc_limit = 65 
rwq = 0 
CCDLc_limit_alone = 65 
WTRc_limit_alone = 0 
RTWc_limit_alone = 0 

Commands details: 
total_CMD = 432021 
n_nop = 431939 
Read = 80 
Write = 0 
L2_Alloc = 0 
L2_WB = 0 
n_act = 2 
n_pre = 0 
n_ref = 0 
n_req = 80 
total_req = 80 

Dual Bus Interface Util: 
issued_total_row = 2 
issued_total_col = 80 
Row_Bus_Util =  0.000005 
CoL_Bus_Util = 0.000185 
Either_Row_CoL_Bus_Util = 0.000190 
Issued_on_Two_Bus_Simul_Util = 0.000000 
issued_two_Eff = 0.000000 
queue_avg = 0.000475 


dram_util_bins: 0 0 0 0 0 0 0 0 0 0
dram_eff_bins: 0 0 0 0 0 0 0 0 0 0
mrqq: max=3 avg=0.000474514
Memory Partition 6: 
Cache L2_bank_012:
MSHR contents

Cache L2_bank_013:
MSHR contents

In Dram Latency Queue (total = 0): 
DRAM[6]: 16 bks, busW=2 BL=16 CL=24, tRRD=12 tCCD=4, tRCD=24 tRAS=55 tRP=24 tRC=78
n_cmd=432021 n_nop=431939 n_act=2 n_pre=0 n_ref_event=0 n_req=80 n_rd=80 n_rd_L2_A=0 n_write=0 n_wr_bk=0 bw_util=0.0007407
n_activity=892 dram_eff=0.3587
bk0: 0a 432022i bk1: 0a 432023i bk2: 40a 431878i bk3: 40a 431892i bk4: 0a 432019i bk5: 0a 432019i bk6: 0a 432020i bk7: 0a 432021i bk8: 0a 432021i bk9: 0a 432021i bk10: 0a 432021i bk11: 0a 432021i bk12: 0a 432021i bk13: 0a 432021i bk14: 0a 432021i bk15: 0a 432021i 

------------------------------------------------------------------------

Row_Buffer_Locality = 1.000000
Row_Buffer_Locality_read = 1.000000
Row_Buffer_Locality_write = -nan
Bank_Level_Parallism = 1.113924
Bank_Level_Parallism_Col = 1.114650
Bank_Level_Parallism_Ready = 1.000000
write_to_read_ratio_blp_rw_average = 0.000000
GrpLevelPara = 1.114650 

BW Util details:
bwutil = 0.000741 
total_CMD = 432021 
util_bw = 320 
Wasted_Col = 106 
Wasted_Row = 0 
Idle = 431595 

BW Util Bottlenecks: 
RCDc_limit = 41 
RCDWRc_limit = 0 
WTRc_limit = 0 
RTWc_limit = 0 
CCDLc_limit = 67 
rwq = 0 
CCDLc_limit_alone = 67 
WTRc_limit_alone = 0 
RTWc_limit_alone = 0 

Commands details: 
total_CMD = 432021 
n_nop = 431939 
Read = 80 
Write = 0 
L2_Alloc = 0 
L2_WB = 0 
n_act = 2 
n_pre = 0 
n_ref = 0 
n_req = 80 
total_req = 80 

Dual Bus Interface Util: 
issued_total_row = 2 
issued_total_col = 80 
Row_Bus_Util =  0.000005 
CoL_Bus_Util = 0.000185 
Either_Row_CoL_Bus_Util = 0.000190 
Issued_on_Two_Bus_Simul_Util = 0.000000 
issued_two_Eff = 0.000000 
queue_avg = 0.000257 


dram_util_bins: 0 0 0 0 0 0 0 0 0 0
dram_eff_bins: 0 0 0 0 0 0 0 0 0 0
mrqq: max=2 avg=0.000256932
Memory Partition 7: 
Cache L2_bank_014:
MSHR contents

Cache L2_bank_015:
MSHR contents

In Dram Latency Queue (total = 0): 
DRAM[7]: 16 bks, busW=2 BL=16 CL=24, tRRD=12 tCCD=4, tRCD=24 tRAS=55 tRP=24 tRC=78
n_cmd=432021 n_nop=431943 n_act=2 n_pre=0 n_ref_event=0 n_req=76 n_rd=76 n_rd_L2_A=0 n_write=0 n_wr_bk=0 bw_util=0.0007037
n_activity=875 dram_eff=0.3474
bk0: 0a 432021i bk1: 0a 432023i bk2: 40a 431873i bk3: 36a 431887i bk4: 0a 432019i bk5: 0a 432020i bk6: 0a 432020i bk7: 0a 432021i bk8: 0a 432021i bk9: 0a 432021i bk10: 0a 432021i bk11: 0a 432021i bk12: 0a 432021i bk13: 0a 432021i bk14: 0a 432021i bk15: 0a 432021i 

------------------------------------------------------------------------

Row_Buffer_Locality = 1.000000
Row_Buffer_Locality_read = 1.000000
Row_Buffer_Locality_write = -nan
Bank_Level_Parallism = 1.118750
Bank_Level_Parallism_Col = 1.119497
Bank_Level_Parallism_Ready = 1.000000
write_to_read_ratio_blp_rw_average = 0.000000
GrpLevelPara = 1.119497 

BW Util details:
bwutil = 0.000704 
total_CMD = 432021 
util_bw = 304 
Wasted_Col = 110 
Wasted_Row = 0 
Idle = 431607 

BW Util Bottlenecks: 
RCDc_limit = 48 
RCDWRc_limit = 0 
WTRc_limit = 0 
RTWc_limit = 0 
CCDLc_limit = 62 
rwq = 0 
CCDLc_limit_alone = 62 
WTRc_limit_alone = 0 
RTWc_limit_alone = 0 

Commands details: 
total_CMD = 432021 
n_nop = 431943 
Read = 76 
Write = 0 
L2_Alloc = 0 
L2_WB = 0 
n_act = 2 
n_pre = 0 
n_ref = 0 
n_req = 76 
total_req = 76 

Dual Bus Interface Util: 
issued_total_row = 2 
issued_total_col = 76 
Row_Bus_Util =  0.000005 
CoL_Bus_Util = 0.000176 
Either_Row_CoL_Bus_Util = 0.000181 
Issued_on_Two_Bus_Simul_Util = 0.000000 
issued_two_Eff = 0.000000 
queue_avg = 0.000326 


dram_util_bins: 0 0 0 0 0 0 0 0 0 0
dram_eff_bins: 0 0 0 0 0 0 0 0 0 0
mrqq: max=2 avg=0.000326373
Memory Partition 8: 
Cache L2_bank_016:
MSHR contents

Cache L2_bank_017:
MSHR contents

In Dram Latency Queue (total = 0): 
DRAM[8]: 16 bks, busW=2 BL=16 CL=24, tRRD=12 tCCD=4, tRCD=24 tRAS=55 tRP=24 tRC=78
n_cmd=432021 n_nop=431943 n_act=2 n_pre=0 n_ref_event=0 n_req=76 n_rd=76 n_rd_L2_A=0 n_write=0 n_wr_bk=0 bw_util=0.0007037
n_activity=800 dram_eff=0.38
bk0: 0a 432021i bk1: 0a 432023i bk2: 40a 431848i bk3: 36a 431890i bk4: 0a 432019i bk5: 0a 432020i bk6: 0a 432020i bk7: 0a 432021i bk8: 0a 432021i bk9: 0a 432021i bk10: 0a 432021i bk11: 0a 432021i bk12: 0a 432021i bk13: 0a 432021i bk14: 0a 432021i bk15: 0a 432021i 

------------------------------------------------------------------------

Row_Buffer_Locality = 1.000000
Row_Buffer_Locality_read = 1.000000
Row_Buffer_Locality_write = -nan
Bank_Level_Parallism = 1.179567
Bank_Level_Parallism_Col = 1.145963
Bank_Level_Parallism_Ready = 1.000000
write_to_read_ratio_blp_rw_average = 0.000000
GrpLevelPara = 1.145963 

BW Util details:
bwutil = 0.000704 
total_CMD = 432021 
util_bw = 304 
Wasted_Col = 104 
Wasted_Row = 0 
Idle = 431613 

BW Util Bottlenecks: 
RCDc_limit = 44 
RCDWRc_limit = 0 
WTRc_limit = 0 
RTWc_limit = 0 
CCDLc_limit = 72 
rwq = 0 
CCDLc_limit_alone = 72 
WTRc_limit_alone = 0 
RTWc_limit_alone = 0 

Commands details: 
total_CMD = 432021 
n_nop = 431943 
Read = 76 
Write = 0 
L2_Alloc = 0 
L2_WB = 0 
n_act = 2 
n_pre = 0 
n_ref = 0 
n_req = 76 
total_req = 76 

Dual Bus Interface Util: 
issued_total_row = 2 
issued_total_col = 76 
Row_Bus_Util =  0.000005 
CoL_Bus_Util = 0.000176 
Either_Row_CoL_Bus_Util = 0.000181 
Issued_on_Two_Bus_Simul_Util = 0.000000 
issued_two_Eff = 0.000000 
queue_avg = 0.000488 


dram_util_bins: 0 0 0 0 0 0 0 0 0 0
dram_eff_bins: 0 0 0 0 0 0 0 0 0 0
mrqq: max=3 avg=0.000488402
Memory Partition 9: 
Cache L2_bank_018:
MSHR contents

Cache L2_bank_019:
MSHR contents

In Dram Latency Queue (total = 0): 
DRAM[9]: 16 bks, busW=2 BL=16 CL=24, tRRD=12 tCCD=4, tRCD=24 tRAS=55 tRP=24 tRC=78
n_cmd=432021 n_nop=431943 n_act=2 n_pre=0 n_ref_event=0 n_req=76 n_rd=76 n_rd_L2_A=0 n_write=0 n_wr_bk=0 bw_util=0.0007037
n_activity=859 dram_eff=0.3539
bk0: 0a 432022i bk1: 0a 432023i bk2: 40a 431884i bk3: 36a 431893i bk4: 0a 432019i bk5: 0a 432019i bk6: 0a 432019i bk7: 0a 432020i bk8: 0a 432021i bk9: 0a 432021i bk10: 0a 432021i bk11: 0a 432021i bk12: 0a 432021i bk13: 0a 432021i bk14: 0a 432022i bk15: 0a 432022i 

------------------------------------------------------------------------

Row_Buffer_Locality = 1.000000
Row_Buffer_Locality_read = 1.000000
Row_Buffer_Locality_write = -nan
Bank_Level_Parallism = 1.068966
Bank_Level_Parallism_Col = 1.069401
Bank_Level_Parallism_Ready = 1.013158
write_to_read_ratio_blp_rw_average = 0.000000
GrpLevelPara = 1.069401 

BW Util details:
bwutil = 0.000704 
total_CMD = 432021 
util_bw = 304 
Wasted_Col = 121 
Wasted_Row = 0 
Idle = 431596 

BW Util Bottlenecks: 
RCDc_limit = 48 
RCDWRc_limit = 0 
WTRc_limit = 0 
RTWc_limit = 0 
CCDLc_limit = 73 
rwq = 0 
CCDLc_limit_alone = 73 
WTRc_limit_alone = 0 
RTWc_limit_alone = 0 

Commands details: 
total_CMD = 432021 
n_nop = 431943 
Read = 76 
Write = 0 
L2_Alloc = 0 
L2_WB = 0 
n_act = 2 
n_pre = 0 
n_ref = 0 
n_req = 76 
total_req = 76 

Dual Bus Interface Util: 
issued_total_row = 2 
issued_total_col = 76 
Row_Bus_Util =  0.000005 
CoL_Bus_Util = 0.000176 
Either_Row_CoL_Bus_Util = 0.000181 
Issued_on_Two_Bus_Simul_Util = 0.000000 
issued_two_Eff = 0.000000 
queue_avg = 0.000537 


dram_util_bins: 0 0 0 0 0 0 0 0 0 0
dram_eff_bins: 0 0 0 0 0 0 0 0 0 0
mrqq: max=3 avg=0.000537011
Memory Partition 10: 
Cache L2_bank_020:
MSHR contents

Cache L2_bank_021:
MSHR contents

In Dram Latency Queue (total = 0): 
DRAM[10]: 16 bks, busW=2 BL=16 CL=24, tRRD=12 tCCD=4, tRCD=24 tRAS=55 tRP=24 tRC=78
n_cmd=432021 n_nop=431947 n_act=2 n_pre=0 n_ref_event=0 n_req=72 n_rd=72 n_rd_L2_A=0 n_write=0 n_wr_bk=0 bw_util=0.0006666
n_activity=826 dram_eff=0.3487
bk0: 0a 432021i bk1: 0a 432023i bk2: 36a 431887i bk3: 36a 431890i bk4: 0a 432019i bk5: 0a 432020i bk6: 0a 432020i bk7: 0a 432021i bk8: 0a 432021i bk9: 0a 432021i bk10: 0a 432021i bk11: 0a 432021i bk12: 0a 432021i bk13: 0a 432021i bk14: 0a 432021i bk15: 0a 432021i 

------------------------------------------------------------------------

Row_Buffer_Locality = 1.000000
Row_Buffer_Locality_read = 1.000000
Row_Buffer_Locality_write = -nan
Bank_Level_Parallism = 1.108553
Bank_Level_Parallism_Col = 1.109272
Bank_Level_Parallism_Ready = 1.000000
write_to_read_ratio_blp_rw_average = 0.000000
GrpLevelPara = 1.109272 

BW Util details:
bwutil = 0.000667 
total_CMD = 432021 
util_bw = 288 
Wasted_Col = 110 
Wasted_Row = 0 
Idle = 431623 

BW Util Bottlenecks: 
RCDc_limit = 48 
RCDWRc_limit = 0 
WTRc_limit = 0 
RTWc_limit = 0 
CCDLc_limit = 62 
rwq = 0 
CCDLc_limit_alone = 62 
WTRc_limit_alone = 0 
RTWc_limit_alone = 0 

Commands details: 
total_CMD = 432021 
n_nop = 431947 
Read = 72 
Write = 0 
L2_Alloc = 0 
L2_WB = 0 
n_act = 2 
n_pre = 0 
n_ref = 0 
n_req = 72 
total_req = 72 

Dual Bus Interface Util: 
issued_total_row = 2 
issued_total_col = 72 
Row_Bus_Util =  0.000005 
CoL_Bus_Util = 0.000167 
Either_Row_CoL_Bus_Util = 0.000171 
Issued_on_Two_Bus_Simul_Util = 0.000000 
issued_two_Eff = 0.000000 
queue_avg = 0.000391 


dram_util_bins: 0 0 0 0 0 0 0 0 0 0
dram_eff_bins: 0 0 0 0 0 0 0 0 0 0
mrqq: max=3 avg=0.000391185
Memory Partition 11: 
Cache L2_bank_022:
MSHR contents

Cache L2_bank_023:
MSHR contents

In Dram Latency Queue (total = 0): 
DRAM[11]: 16 bks, busW=2 BL=16 CL=24, tRRD=12 tCCD=4, tRCD=24 tRAS=55 tRP=24 tRC=78
n_cmd=432021 n_nop=431951 n_act=2 n_pre=0 n_ref_event=0 n_req=68 n_rd=68 n_rd_L2_A=0 n_write=0 n_wr_bk=0 bw_util=0.0006296
n_activity=707 dram_eff=0.3847
bk0: 0a 432021i bk1: 0a 432023i bk2: 36a 431872i bk3: 32a 431910i bk4: 0a 432019i bk5: 0a 432020i bk6: 0a 432020i bk7: 0a 432021i bk8: 0a 432021i bk9: 0a 432021i bk10: 0a 432021i bk11: 0a 432021i bk12: 0a 432021i bk13: 0a 432021i bk14: 0a 432021i bk15: 0a 432021i 

------------------------------------------------------------------------

Row_Buffer_Locality = 1.000000
Row_Buffer_Locality_read = 1.000000
Row_Buffer_Locality_write = -nan
Bank_Level_Parallism = 1.223048
Bank_Level_Parallism_Col = 1.194030
Bank_Level_Parallism_Ready = 1.000000
write_to_read_ratio_blp_rw_average = 0.000000
GrpLevelPara = 1.194030 

BW Util details:
bwutil = 0.000630 
total_CMD = 432021 
util_bw = 272 
Wasted_Col = 83 
Wasted_Row = 0 
Idle = 431666 

BW Util Bottlenecks: 
RCDc_limit = 40 
RCDWRc_limit = 0 
WTRc_limit = 0 
RTWc_limit = 0 
CCDLc_limit = 57 
rwq = 0 
CCDLc_limit_alone = 57 
WTRc_limit_alone = 0 
RTWc_limit_alone = 0 

Commands details: 
total_CMD = 432021 
n_nop = 431951 
Read = 68 
Write = 0 
L2_Alloc = 0 
L2_WB = 0 
n_act = 2 
n_pre = 0 
n_ref = 0 
n_req = 68 
total_req = 68 

Dual Bus Interface Util: 
issued_total_row = 2 
issued_total_col = 68 
Row_Bus_Util =  0.000005 
CoL_Bus_Util = 0.000157 
Either_Row_CoL_Bus_Util = 0.000162 
Issued_on_Two_Bus_Simul_Util = 0.000000 
issued_two_Eff = 0.000000 
queue_avg = 0.000444 


dram_util_bins: 0 0 0 0 0 0 0 0 0 0
dram_eff_bins: 0 0 0 0 0 0 0 0 0 0
mrqq: max=4 avg=0.000444423

========= L2 cache stats =========
L2_cache_bank[0]: Access = 14160, Miss = 40, Miss_rate = 0.003, Pending_hits = 94, Reservation_fails = 1007
L2_cache_bank[1]: Access = 14160, Miss = 40, Miss_rate = 0.003, Pending_hits = 103, Reservation_fails = 1276
L2_cache_bank[2]: Access = 14370, Miss = 40, Miss_rate = 0.003, Pending_hits = 104, Reservation_fails = 1116
L2_cache_bank[3]: Access = 14280, Miss = 40, Miss_rate = 0.003, Pending_hits = 101, Reservation_fails = 1359
L2_cache_bank[4]: Access = 14160, Miss = 40, Miss_rate = 0.003, Pending_hits = 105, Reservation_fails = 1272
L2_cache_bank[5]: Access = 14160, Miss = 40, Miss_rate = 0.003, Pending_hits = 111, Reservation_fails = 1221
L2_cache_bank[6]: Access = 13980, Miss = 40, Miss_rate = 0.003, Pending_hits = 113, Reservation_fails = 1322
L2_cache_bank[7]: Access = 13920, Miss = 40, Miss_rate = 0.003, Pending_hits = 113, Reservation_fails = 1320
L2_cache_bank[8]: Access = 14130, Miss = 40, Miss_rate = 0.003, Pending_hits = 106, Reservation_fails = 1312
L2_cache_bank[9]: Access = 14040, Miss = 40, Miss_rate = 0.003, Pending_hits = 111, Reservation_fails = 1403
L2_cache_bank[10]: Access = 13920, Miss = 40, Miss_rate = 0.003, Pending_hits = 113, Reservation_fails = 1168
L2_cache_bank[11]: Access = 13920, Miss = 40, Miss_rate = 0.003, Pending_hits = 111, Reservation_fails = 1254
L2_cache_bank[12]: Access = 13920, Miss = 40, Miss_rate = 0.003, Pending_hits = 119, Reservation_fails = 1255
L2_cache_bank[13]: Access = 13920, Miss = 40, Miss_rate = 0.003, Pending_hits = 114, Reservation_fails = 1375
L2_cache_bank[14]: Access = 14130, Miss = 40, Miss_rate = 0.003, Pending_hits = 112, Reservation_fails = 1172
L2_cache_bank[15]: Access = 14040, Miss = 36, Miss_rate = 0.003, Pending_hits = 104, Reservation_fails = 1019
L2_cache_bank[16]: Access = 13980, Miss = 40, Miss_rate = 0.003, Pending_hits = 111, Reservation_fails = 1058
L2_cache_bank[17]: Access = 13920, Miss = 36, Miss_rate = 0.003, Pending_hits = 103, Reservation_fails = 1078
L2_cache_bank[18]: Access = 13984, Miss = 41, Miss_rate = 0.003, Pending_hits = 115, Reservation_fails = 1114
L2_cache_bank[19]: Access = 13920, Miss = 36, Miss_rate = 0.003, Pending_hits = 98, Reservation_fails = 1023
L2_cache_bank[20]: Access = 14130, Miss = 36, Miss_rate = 0.003, Pending_hits = 99, Reservation_fails = 1075
L2_cache_bank[21]: Access = 14040, Miss = 36, Miss_rate = 0.003, Pending_hits = 93, Reservation_fails = 985
L2_cache_bank[22]: Access = 13920, Miss = 36, Miss_rate = 0.003, Pending_hits = 95, Reservation_fails = 928
L2_cache_bank[23]: Access = 13920, Miss = 32, Miss_rate = 0.002, Pending_hits = 88, Reservation_fails = 834
L2_total_cache_accesses = 337024
L2_total_cache_misses = 929
L2_total_cache_miss_rate = 0.0028
L2_total_cache_pending_hits = 2536
L2_total_cache_reservation_fails = 27946
L2_total_cache_breakdown:
	L2_cache_stats_breakdown[GLOBAL_ACC_R][HIT] = 333496
	L2_cache_stats_breakdown[GLOBAL_ACC_R][HIT_RESERVED] = 2536
	L2_cache_stats_breakdown[GLOBAL_ACC_R][MISS] = 232
	L2_cache_stats_breakdown[GLOBAL_ACC_R][RESERVATION_FAIL] = 27946
	L2_cache_stats_breakdown[GLOBAL_ACC_R][SECTOR_MISS] = 696
	L2_cache_stats_breakdown[GLOBAL_ACC_R][MSHR_HIT] = 2536
	L2_cache_stats_breakdown[LOCAL_ACC_R][HIT] = 0
	L2_cache_stats_breakdown[LOCAL_ACC_R][HIT_RESERVED] = 0
	L2_cache_stats_breakdown[LOCAL_ACC_R][MISS] = 0
	L2_cache_stats_breakdown[LOCAL_ACC_R][RESERVATION_FAIL] = 0
	L2_cache_stats_breakdown[LOCAL_ACC_R][SECTOR_MISS] = 0
	L2_cache_stats_breakdown[LOCAL_ACC_R][MSHR_HIT] = 0
	L2_cache_stats_breakdown[CONST_ACC_R][HIT] = 0
	L2_cache_stats_breakdown[CONST_ACC_R][HIT_RESERVED] = 0
	L2_cache_stats_breakdown[CONST_ACC_R][MISS] = 0
	L2_cache_stats_breakdown[CONST_ACC_R][RESERVATION_FAIL] = 0
	L2_cache_stats_breakdown[CONST_ACC_R][SECTOR_MISS] = 0
	L2_cache_stats_breakdown[CONST_ACC_R][MSHR_HIT] = 0
	L2_cache_stats_breakdown[TEXTURE_ACC_R][HIT] = 0
	L2_cache_stats_breakdown[TEXTURE_ACC_R][HIT_RESERVED] = 0
	L2_cache_stats_breakdown[TEXTURE_ACC_R][MISS] = 0
	L2_cache_stats_breakdown[TEXTURE_ACC_R][RESERVATION_FAIL] = 0
	L2_cache_stats_breakdown[TEXTURE_ACC_R][SECTOR_MISS] = 0
	L2_cache_stats_breakdown[TEXTURE_ACC_R][MSHR_HIT] = 0
	L2_cache_stats_breakdown[GLOBAL_ACC_W][HIT] = 63
	L2_cache_stats_breakdown[GLOBAL_ACC_W][HIT_RESERVED] = 0
	L2_cache_stats_breakdown[GLOBAL_ACC_W][MISS] = 1
	L2_cache_stats_breakdown[GLOBAL_ACC_W][RESERVATION_FAIL] = 0
	L2_cache_stats_breakdown[GLOBAL_ACC_W][SECTOR_MISS] = 0
	L2_cache_stats_breakdown[GLOBAL_ACC_W][MSHR_HIT] = 0
	L2_cache_stats_breakdown[LOCAL_ACC_W][HIT] = 0
	L2_cache_stats_breakdown[LOCAL_ACC_W][HIT_RESERVED] = 0
	L2_cache_stats_breakdown[LOCAL_ACC_W][MISS] = 0
	L2_cache_stats_breakdown[LOCAL_ACC_W][RESERVATION_FAIL] = 0
	L2_cache_stats_breakdown[LOCAL_ACC_W][SECTOR_MISS] = 0
	L2_cache_stats_breakdown[LOCAL_ACC_W][MSHR_HIT] = 0
	L2_cache_stats_breakdown[L1_WRBK_ACC][HIT] = 0
	L2_cache_stats_breakdown[L1_WRBK_ACC][HIT_RESERVED] = 0
	L2_cache_stats_breakdown[L1_WRBK_ACC][MISS] = 0
	L2_cache_stats_breakdown[L1_WRBK_ACC][RESERVATION_FAIL] = 0
	L2_cache_stats_breakdown[L1_WRBK_ACC][SECTOR_MISS] = 0
	L2_cache_stats_breakdown[L1_WRBK_ACC][MSHR_HIT] = 0
	L2_cache_stats_breakdown[L2_WRBK_ACC][HIT] = 0
	L2_cache_stats_breakdown[L2_WRBK_ACC][HIT_RESERVED] = 0
	L2_cache_stats_breakdown[L2_WRBK_ACC][MISS] = 0
	L2_cache_stats_breakdown[L2_WRBK_ACC][RESERVATION_FAIL] = 0
	L2_cache_stats_breakdown[L2_WRBK_ACC][SECTOR_MISS] = 0
	L2_cache_stats_breakdown[L2_WRBK_ACC][MSHR_HIT] = 0
	L2_cache_stats_breakdown[INST_ACC_R][HIT] = 0
	L2_cache_stats_breakdown[INST_ACC_R][HIT_RESERVED] = 0
	L2_cache_stats_breakdown[INST_ACC_R][MISS] = 0
	L2_cache_stats_breakdown[INST_ACC_R][RESERVATION_FAIL] = 0
	L2_cache_stats_breakdown[INST_ACC_R][SECTOR_MISS] = 0
	L2_cache_stats_breakdown[INST_ACC_R][MSHR_HIT] = 0
	L2_cache_stats_breakdown[L1_WR_ALLOC_R][HIT] = 0
	L2_cache_stats_breakdown[L1_WR_ALLOC_R][HIT_RESERVED] = 0
	L2_cache_stats_breakdown[L1_WR_ALLOC_R][MISS] = 0
	L2_cache_stats_breakdown[L1_WR_ALLOC_R][RESERVATION_FAIL] = 0
	L2_cache_stats_breakdown[L1_WR_ALLOC_R][SECTOR_MISS] = 0
	L2_cache_stats_breakdown[L1_WR_ALLOC_R][MSHR_HIT] = 0
	L2_cache_stats_breakdown[L2_WR_ALLOC_R][HIT] = 0
	L2_cache_stats_breakdown[L2_WR_ALLOC_R][HIT_RESERVED] = 0
	L2_cache_stats_breakdown[L2_WR_ALLOC_R][MISS] = 0
	L2_cache_stats_breakdown[L2_WR_ALLOC_R][RESERVATION_FAIL] = 0
	L2_cache_stats_breakdown[L2_WR_ALLOC_R][SECTOR_MISS] = 0
	L2_cache_stats_breakdown[L2_WR_ALLOC_R][MSHR_HIT] = 0
	L2_cache_stats_breakdown[GLOBAL_ACC_R][TOTAL_ACCESS] = 336960
	L2_cache_stats_breakdown[GLOBAL_ACC_W][TOTAL_ACCESS] = 64
L2_total_cache_reservation_fail_breakdown:
	L2_cache_stats_fail_breakdown[GLOBAL_ACC_R][MSHR_MERGE_ENRTY_FAIL] = 27946
L2_cache_data_port_util = 0.082
L2_cache_fill_port_util = 0.000

icnt_total_pkts_mem_to_simt=337024
icnt_total_pkts_simt_to_mem=337024
LD_mem_lat_dist  0 0 0 0 0 0 0 0 0 0 0 0 0 0 0 0 0 0 0 0 0 0 0 0 0 0 0
ST_mem_lat_dist  0 0 0 0 0 0 0 0 0 0 0 0 0 0 0 0 0 0 0 0 0 0 0 0 0 0 0
----------------------------Interconnect-DETAILS--------------------------------
Req_Network_injected_packets_num = 337024
Req_Network_cycles = 168465
Req_Network_injected_packets_per_cycle =       2.0006 
Req_Network_conflicts_per_cycle =       2.5371
Req_Network_conflicts_per_cycle_util =       3.7406
Req_Bank_Level_Parallism =       2.9495
Req_Network_in_buffer_full_per_cycle =       0.0000
Req_Network_in_buffer_avg_util =       4.1717
Req_Network_out_buffer_full_per_cycle =       0.0000
Req_Network_out_buffer_avg_util =       0.0842

Reply_Network_injected_packets_num = 337024
Reply_Network_cycles = 168465
Reply_Network_injected_packets_per_cycle =        2.0006
Reply_Network_conflicts_per_cycle =        0.0978
Reply_Network_conflicts_per_cycle_util =       0.1446
Reply_Bank_Level_Parallism =       2.9569
Reply_Network_in_buffer_full_per_cycle =       0.0000
Reply_Network_in_buffer_avg_util =       0.0152
Reply_Network_out_buffer_full_per_cycle =       0.0000
Reply_Network_out_buffer_avg_util =       0.0667
----------------------------END-of-Interconnect-DETAILS-------------------------


gpgpu_simulation_time = 0 days, 0 hrs, 12 min, 10 sec (730 sec)
gpgpu_simulation_rate = 15479 (inst/sec)
gpgpu_simulation_rate = 230 (cycle/sec)
gpgpu_silicon_slowdown = 5934782x
GPGPU-Sim: synchronize waiting for inactive GPU simulation
GPGPU-Sim API: Stream Manager State
GPGPU-Sim: detected inactive GPU simulation thread
The result for i=0 is 0.943991 and i=1 is 0.908974
GPGPU-Sim: *** exit detected ***
