

        *** GPGPU-Sim Simulator Version 4.2.0  [build gpgpu-sim_git-commit-5e9d31b8132651796656877ecb58fde27177ba7a_modified_303.0] ***


GPGPU-Sim PTX: simulation mode 0 (can change with PTX_SIM_MODE_FUNC environment variable:
               1=functional simulation only, 0=detailed performance simulator)
GPGPU-Sim PTX: overriding embedded ptx with ptx file (PTX_SIM_USE_PTX_FILE is set)
GPGPU-Sim: Configuration options:

-save_embedded_ptx                      0 # saves ptx files embedded in binary as <n>.ptx
-keep                                   0 # keep intermediate files created by GPGPU-Sim when interfacing with external programs
-gpgpu_ptx_save_converted_ptxplus                    0 # Saved converted ptxplus to a file
-gpgpu_occupancy_sm_number                   75 # The SM number to pass to ptxas when getting register usage for computing GPU occupancy. This parameter is required in the config.
-ptx_opcode_latency_int           4,4,4,4,21 # Opcode latencies for integers <ADD,MAX,MUL,MAD,DIV,SHFL>Default 1,1,19,25,145,32
-ptx_opcode_latency_fp           4,4,4,4,39 # Opcode latencies for single precision floating points <ADD,MAX,MUL,MAD,DIV>Default 1,1,1,1,30
-ptx_opcode_latency_dp      64,64,64,64,330 # Opcode latencies for double precision floating points <ADD,MAX,MUL,MAD,DIV>Default 8,8,8,8,335
-ptx_opcode_latency_sfu                   21 # Opcode latencies for SFU instructionsDefault 8
-ptx_opcode_latency_tesnor                   64 # Opcode latencies for Tensor instructionsDefault 64
-ptx_opcode_initiation_int            2,2,2,2,2 # Opcode initiation intervals for integers <ADD,MAX,MUL,MAD,DIV,SHFL>Default 1,1,4,4,32,4
-ptx_opcode_initiation_fp            2,2,2,2,4 # Opcode initiation intervals for single precision floating points <ADD,MAX,MUL,MAD,DIV>Default 1,1,1,1,5
-ptx_opcode_initiation_dp      64,64,64,64,130 # Opcode initiation intervals for double precision floating points <ADD,MAX,MUL,MAD,DIV>Default 8,8,8,8,130
-ptx_opcode_initiation_sfu                    8 # Opcode initiation intervals for sfu instructionsDefault 8
-ptx_opcode_initiation_tensor                   64 # Opcode initiation intervals for tensor instructionsDefault 64
-cdp_latency         7200,8000,100,12000,1600 # CDP API latency <cudaStreamCreateWithFlags, cudaGetParameterBufferV2_init_perWarp, cudaGetParameterBufferV2_perKernel, cudaLaunchDeviceV2_init_perWarp, cudaLaunchDevicV2_perKernel>Default 7200,8000,100,12000,1600
-network_mode                           2 # Interconnection network mode
-inter_config_file                   mesh # Interconnection network config file
-icnt_in_buffer_limit                  512 # in_buffer_limit
-icnt_out_buffer_limit                  512 # out_buffer_limit
-icnt_subnets                           2 # subnets
-icnt_arbiter_algo                      1 # arbiter_algo
-icnt_verbose                           0 # inct_verbose
-icnt_grant_cycles                      1 # grant_cycles
-gpgpu_ptx_use_cuobjdump                    1 # Use cuobjdump to extract ptx and sass from binaries
-gpgpu_experimental_lib_support                    0 # Try to extract code from cuda libraries [Broken because of unknown cudaGetExportTable]
-checkpoint_option                      0 #  checkpointing flag (0 = no checkpoint)
-checkpoint_kernel                      1 #  checkpointing during execution of which kernel (1- 1st kernel)
-checkpoint_CTA                         0 #  checkpointing after # of CTA (< less than total CTA)
-resume_option                          0 #  resume flag (0 = no resume)
-resume_kernel                          0 #  Resume from which kernel (1= 1st kernel)
-resume_CTA                             0 #  resume from which CTA 
-checkpoint_CTA_t                       0 #  resume from which CTA 
-checkpoint_insn_Y                      0 #  resume from which CTA 
-gpgpu_ptx_convert_to_ptxplus                    0 # Convert SASS (native ISA) to ptxplus and run ptxplus
-gpgpu_ptx_force_max_capability                   75 # Force maximum compute capability
-gpgpu_ptx_inst_debug_to_file                    0 # Dump executed instructions' debug information to file
-gpgpu_ptx_inst_debug_file       inst_debug.txt # Executed instructions' debug output file
-gpgpu_ptx_inst_debug_thread_uid                    1 # Thread UID for executed instructions' debug output
-gpgpu_simd_model                       1 # 1 = post-dominator
-gpgpu_shader_core_pipeline              1024:32 # shader core pipeline config, i.e., {<nthread>:<warpsize>}
-gpgpu_tex_cache:l1  N:4:128:256,L:R:m:N:L,T:512:8,128:2 # per-shader L1 texture cache  (READ-ONLY) config  {<nsets>:<bsize>:<assoc>,<rep>:<wr>:<alloc>:<wr_alloc>,<mshr>:<N>:<merge>,<mq>:<rf>}
-gpgpu_const_cache:l1 N:128:64:8,L:R:f:N:L,S:2:64,4 # per-shader L1 constant memory cache  (READ-ONLY) config  {<nsets>:<bsize>:<assoc>,<rep>:<wr>:<alloc>:<wr_alloc>,<mshr>:<N>:<merge>,<mq>} 
-gpgpu_cache:il1     N:64:128:16,L:R:f:N:L,S:2:48,4 # shader L1 instruction cache config  {<nsets>:<bsize>:<assoc>,<rep>:<wr>:<alloc>:<wr_alloc>,<mshr>:<N>:<merge>,<mq>} 
-gpgpu_cache:dl1     S:4:128:64,L:T:m:L:L,A:256:32,16:0,32 # per-shader L1 data cache config  {<nsets>:<bsize>:<assoc>,<rep>:<wr>:<alloc>:<wr_alloc>,<mshr>:<N>:<merge>,<mq> | none}
-gpgpu_l1_cache_write_ratio                   25 # L1D write ratio
-gpgpu_l1_banks                         4 # The number of L1 cache banks
-gpgpu_l1_banks_byte_interleaving                   32 # l1 banks byte interleaving granularity
-gpgpu_l1_banks_hashing_function                    0 # l1 banks hashing function
-gpgpu_l1_latency                      32 # L1 Hit Latency
-gpgpu_smem_latency                    30 # smem Latency
-gpgpu_cache:dl1PrefL1                 none # per-shader L1 data cache config  {<nsets>:<bsize>:<assoc>,<rep>:<wr>:<alloc>:<wr_alloc>,<mshr>:<N>:<merge>,<mq> | none}
-gpgpu_cache:dl1PrefShared                 none # per-shader L1 data cache config  {<nsets>:<bsize>:<assoc>,<rep>:<wr>:<alloc>:<wr_alloc>,<mshr>:<N>:<merge>,<mq> | none}
-gpgpu_gmem_skip_L1D                    0 # global memory access skip L1D cache (implements -Xptxas -dlcm=cg, default=no skip)
-gpgpu_perfect_mem                      0 # enable perfect memory mode (no cache miss)
-n_regfile_gating_group                    4 # group of lanes that should be read/written together)
-gpgpu_clock_gated_reg_file                    0 # enable clock gated reg file for power calculations
-gpgpu_clock_gated_lanes                    0 # enable clock gated lanes for power calculations
-gpgpu_shader_registers                65536 # Number of registers per shader core. Limits number of concurrent CTAs. (default 8192)
-gpgpu_registers_per_block                65536 # Maximum number of registers per CTA. (default 8192)
-gpgpu_ignore_resources_limitation                    0 # gpgpu_ignore_resources_limitation (default 0)
-gpgpu_shader_cta                      16 # Maximum number of concurrent CTAs in shader (default 32)
-gpgpu_num_cta_barriers                   16 # Maximum number of named barriers per CTA (default 16)
-gpgpu_n_clusters                      30 # number of processing clusters
-gpgpu_n_cores_per_cluster                    1 # number of simd cores per cluster
-gpgpu_n_cluster_ejection_buffer_size                   32 # number of packets in ejection buffer
-gpgpu_n_ldst_response_buffer_size                    2 # number of response packets in ld/st unit ejection buffer
-gpgpu_shmem_per_block                49152 # Size of shared memory per thread block or CTA (default 48kB)
-gpgpu_shmem_size                   65536 # Size of shared memory per shader core (default 16kB)
-gpgpu_shmem_option                 32,64 # Option list of shared memory sizes
-gpgpu_unified_l1d_size                   96 # Size of unified data cache(L1D + shared memory) in KB
-gpgpu_adaptive_cache_config                    1 # adaptive_cache_config
-gpgpu_shmem_sizeDefault                65536 # Size of shared memory per shader core (default 16kB)
-gpgpu_shmem_size_PrefL1                16384 # Size of shared memory per shader core (default 16kB)
-gpgpu_shmem_size_PrefShared                16384 # Size of shared memory per shader core (default 16kB)
-gpgpu_shmem_num_banks                   32 # Number of banks in the shared memory in each shader core (default 16)
-gpgpu_shmem_limited_broadcast                    0 # Limit shared memory to do one broadcast per cycle (default on)
-gpgpu_shmem_warp_parts                    1 # Number of portions a warp is divided into for shared memory bank conflict check 
-gpgpu_mem_unit_ports                    1 # The number of memory transactions allowed per core cycle
-gpgpu_shmem_warp_parts                    1 # Number of portions a warp is divided into for shared memory bank conflict check 
-gpgpu_warpdistro_shader                   -1 # Specify which shader core to collect the warp size distribution from
-gpgpu_warp_issue_shader                    0 # Specify which shader core to collect the warp issue distribution from
-gpgpu_local_mem_map                    1 # Mapping from local memory space address to simulated GPU physical address space (default = enabled)
-gpgpu_num_reg_banks                    8 # Number of register banks (default = 8)
-gpgpu_reg_bank_use_warp_id                    0 # Use warp ID in mapping registers to banks (default = off)
-gpgpu_sub_core_model                    1 # Sub Core Volta/Pascal model (default = off)
-gpgpu_enable_specialized_operand_collector                    0 # enable_specialized_operand_collector
-gpgpu_operand_collector_num_units_sp                    4 # number of collector units (default = 4)
-gpgpu_operand_collector_num_units_dp                    0 # number of collector units (default = 0)
-gpgpu_operand_collector_num_units_sfu                    4 # number of collector units (default = 4)
-gpgpu_operand_collector_num_units_int                    0 # number of collector units (default = 0)
-gpgpu_operand_collector_num_units_tensor_core                    4 # number of collector units (default = 4)
-gpgpu_operand_collector_num_units_mem                    2 # number of collector units (default = 2)
-gpgpu_operand_collector_num_units_gen                    8 # number of collector units (default = 0)
-gpgpu_operand_collector_num_in_ports_sp                    1 # number of collector unit in ports (default = 1)
-gpgpu_operand_collector_num_in_ports_dp                    0 # number of collector unit in ports (default = 0)
-gpgpu_operand_collector_num_in_ports_sfu                    1 # number of collector unit in ports (default = 1)
-gpgpu_operand_collector_num_in_ports_int                    0 # number of collector unit in ports (default = 0)
-gpgpu_operand_collector_num_in_ports_tensor_core                    1 # number of collector unit in ports (default = 1)
-gpgpu_operand_collector_num_in_ports_mem                    1 # number of collector unit in ports (default = 1)
-gpgpu_operand_collector_num_in_ports_gen                    8 # number of collector unit in ports (default = 0)
-gpgpu_operand_collector_num_out_ports_sp                    1 # number of collector unit in ports (default = 1)
-gpgpu_operand_collector_num_out_ports_dp                    0 # number of collector unit in ports (default = 0)
-gpgpu_operand_collector_num_out_ports_sfu                    1 # number of collector unit in ports (default = 1)
-gpgpu_operand_collector_num_out_ports_int                    0 # number of collector unit in ports (default = 0)
-gpgpu_operand_collector_num_out_ports_tensor_core                    1 # number of collector unit in ports (default = 1)
-gpgpu_operand_collector_num_out_ports_mem                    1 # number of collector unit in ports (default = 1)
-gpgpu_operand_collector_num_out_ports_gen                    8 # number of collector unit in ports (default = 0)
-gpgpu_coalesce_arch                   75 # Coalescing arch (GT200 = 13, Fermi = 20)
-gpgpu_num_sched_per_core                    4 # Number of warp schedulers per core
-gpgpu_max_insn_issue_per_warp                    1 # Max number of instructions that can be issued per warp in one cycle by scheduler (either 1 or 2)
-gpgpu_dual_issue_diff_exec_units                    1 # should dual issue use two different execution unit resources (Default = 1)
-gpgpu_simt_core_sim_order                    1 # Select the simulation order of cores in a cluster (0=Fix, 1=Round-Robin)
-gpgpu_pipeline_widths 4,4,4,4,4,4,4,4,4,4,8,4,4 # Pipeline widths ID_OC_SP,ID_OC_DP,ID_OC_INT,ID_OC_SFU,ID_OC_MEM,OC_EX_SP,OC_EX_DP,OC_EX_INT,OC_EX_SFU,OC_EX_MEM,EX_WB,ID_OC_TENSOR_CORE,OC_EX_TENSOR_CORE
-gpgpu_tensor_core_avail                    1 # Tensor Core Available (default=0)
-gpgpu_num_sp_units                     4 # Number of SP units (default=1)
-gpgpu_num_dp_units                     4 # Number of DP units (default=0)
-gpgpu_num_int_units                    4 # Number of INT units (default=0)
-gpgpu_num_sfu_units                    4 # Number of SF units (default=1)
-gpgpu_num_tensor_core_units                    4 # Number of tensor_core units (default=1)
-gpgpu_num_mem_units                    1 # Number if ldst units (default=1) WARNING: not hooked up to anything
-kernelBased                            0 # Does the approximator work as kernel based (default = 0)
-kernelId                               0 # Kernel ids where the approximation applied 
-hybridApproximation                    0 # Hybrid approximator (default = 0)
-errorPercentage                      100 # Error percentage (number of max flushed accesses)
-l1dApproximator                        1 # Memory access delete unit (default = 0)
-l1dSlicingAccessInterval                 5000 # Slice access window length (default = 1000)
-l2Approximator                         0 # Memory access delete unit (default = 0)
-l2SlicingAccessInterval                 5000 # Slice access window length (default = 1000)
-smOccupancy                            0 # sm occupancy (default = 0)
-smSlicingInterval                   5000 # Slice access window length (default = 1000)
-gpgpu_scheduler                      lrr # Scheduler configuration: < lrr | gto | two_level_active > If two_level_active:<num_active_warps>:<inner_prioritization>:<outer_prioritization>For complete list of prioritization values see shader.h enum scheduler_prioritization_typeDefault: gto
-gpgpu_concurrent_kernel_sm                    0 # Support concurrent kernels on a SM (default = disabled)
-gpgpu_perfect_inst_const_cache                    1 # perfect inst and const cache mode, so all inst and const hits in the cache(default = disabled)
-gpgpu_inst_fetch_throughput                    4 # the number of fetched intruction per warp each cycle
-gpgpu_reg_file_port_throughput                    2 # the number ports of the register file
-specialized_unit_1         0,4,4,4,4,BRA # specialized unit config {<enabled>,<num_units>:<latency>:<initiation>,<ID_OC_SPEC>:<OC_EX_SPEC>,<NAME>}
-specialized_unit_2         0,4,4,4,4,BRA # specialized unit config {<enabled>,<num_units>:<latency>:<initiation>,<ID_OC_SPEC>:<OC_EX_SPEC>,<NAME>}
-specialized_unit_3         0,4,4,4,4,BRA # specialized unit config {<enabled>,<num_units>:<latency>:<initiation>,<ID_OC_SPEC>:<OC_EX_SPEC>,<NAME>}
-specialized_unit_4         0,4,4,4,4,BRA # specialized unit config {<enabled>,<num_units>:<latency>:<initiation>,<ID_OC_SPEC>:<OC_EX_SPEC>,<NAME>}
-specialized_unit_5         0,4,4,4,4,BRA # specialized unit config {<enabled>,<num_units>:<latency>:<initiation>,<ID_OC_SPEC>:<OC_EX_SPEC>,<NAME>}
-specialized_unit_6         0,4,4,4,4,BRA # specialized unit config {<enabled>,<num_units>:<latency>:<initiation>,<ID_OC_SPEC>:<OC_EX_SPEC>,<NAME>}
-specialized_unit_7         0,4,4,4,4,BRA # specialized unit config {<enabled>,<num_units>:<latency>:<initiation>,<ID_OC_SPEC>:<OC_EX_SPEC>,<NAME>}
-specialized_unit_8         0,4,4,4,4,BRA # specialized unit config {<enabled>,<num_units>:<latency>:<initiation>,<ID_OC_SPEC>:<OC_EX_SPEC>,<NAME>}
-gpgpu_perf_sim_memcpy                    1 # Fill the L2 cache on memcpy
-gpgpu_simple_dram_model                    0 # simple_dram_model with fixed latency and BW
-gpgpu_dram_scheduler                    1 # 0 = fifo, 1 = FR-FCFS (defaul)
-gpgpu_dram_partition_queues          64:64:64:64 # i2$:$2d:d2$:$2i
-l2_ideal                               0 # Use a ideal L2 cache that always hit
-gpgpu_cache:dl2     S:64:128:16,L:B:m:L:P,A:192:4,32:0,32 # unified banked L2 data cache config  {<nsets>:<bsize>:<assoc>,<rep>:<wr>:<alloc>:<wr_alloc>,<mshr>:<N>:<merge>,<mq>}
-gpgpu_cache:dl2_texture_only                    0 # L2 cache used for texture only
-gpgpu_n_mem                           12 # number of memory modules (e.g. memory controllers) in gpu
-gpgpu_n_sub_partition_per_mchannel                    2 # number of memory subpartition in each memory module
-gpgpu_n_mem_per_ctrlr                    1 # number of memory chips per memory controller
-gpgpu_memlatency_stat                   14 # track and display latency statistics 0x2 enables MC, 0x4 enables queue logs
-gpgpu_frfcfs_dram_sched_queue_size                   64 # 0 = unlimited (default); # entries per chip
-gpgpu_dram_return_queue_size                  192 # 0 = unlimited (default); # entries per chip
-gpgpu_dram_buswidth                    2 # default = 4 bytes (8 bytes per cycle at DDR)
-gpgpu_dram_burst_length                   16 # Burst length of each DRAM request (default = 4 data bus cycle)
-dram_data_command_freq_ratio                    4 # Frequency ratio between DRAM data bus and command bus (default = 2 times, i.e. DDR)
-gpgpu_dram_timing_opt nbk=16:CCD=4:RRD=12:RCD=24:RAS=55:RP=24:RC=78:CL=24:WL=8:CDLR=10:WR=24:nbkgrp=4:CCDL=6:RTPL=4 # DRAM timing parameters = {nbk:tCCD:tRRD:tRCD:tRAS:tRP:tRC:CL:WL:tCDLR:tWR:nbkgrp:tCCDL:tRTPL}
-gpgpu_l2_rop_latency                  194 # ROP queue latency (default 85)
-dram_latency                          96 # DRAM latency (default 30)
-dram_dual_bus_interface                    0 # dual_bus_interface (default = 0) 
-dram_bnk_indexing_policy                    0 # dram_bnk_indexing_policy (0 = normal indexing, 1 = Xoring with the higher bits) (Default = 0)
-dram_bnkgrp_indexing_policy                    1 # dram_bnkgrp_indexing_policy (0 = take higher bits, 1 = take lower bits) (Default = 0)
-dram_seperate_write_queue_enable                    0 # Seperate_Write_Queue_Enable
-dram_write_queue_size             32:28:16 # Write_Queue_Size
-dram_elimnate_rw_turnaround                    0 # elimnate_rw_turnaround i.e set tWTR and tRTW = 0
-icnt_flit_size                        40 # icnt_flit_size
-icnt_flit_size                        40 # icnt_flit_size
-mem_profiler                           0 # memory access runtime profiling (0 = not enabled)
-gpgpu_mem_addr_mapping dramid@8;00000000.00000000.00000000.00000000.0000RRRR.RRRRRRRR.RBBBCCCC.BCCSSSSS # mapping memory address to dram model {dramid@<start bit>;<memory address map>}
-gpgpu_mem_addr_test                    0 # run sweep test to check address mapping for aliased address
-gpgpu_mem_address_mask                    1 # 0 = old addressing mask, 1 = new addressing mask, 2 = new add. mask + flipped bank sel and chip sel bits
-gpgpu_memory_partition_indexing                    0 # 0 = no indexing, 1 = bitwise xoring, 2 = IPoly, 3 = custom indexing
-accelwattch_xml_file accelwattch_sass_sim.xml # AccelWattch XML file
-power_simulation_enabled                    1 # Turn on power simulator (1=On, 0=Off)
-power_per_cycle_dump                    1 # Dump detailed power output each cycle
-hw_perf_file_name            hw_perf.csv # Hardware Performance Statistics file
-hw_perf_bench_name    hw_perf_bench_name # Kernel Name in Hardware Performance Statistics file
-power_simulation_mode                    0 # Switch performance counter input for power simulation (0=Sim, 1=HW, 2=HW-Sim Hybrid)
-dvfs_enabled                           1 # Turn on DVFS for power model
-aggregate_power_stats                    0 # Accumulate power across all kernels
-accelwattch_hybrid_perfsim_L1_RH                    0 # Get L1 Read Hits for Accelwattch-Hybrid from Accel-Sim
-accelwattch_hybrid_perfsim_L1_RM                    0 # Get L1 Read Misses for Accelwattch-Hybrid from Accel-Sim
-accelwattch_hybrid_perfsim_L1_WH                    0 # Get L1 Write Hits for Accelwattch-Hybrid from Accel-Sim
-accelwattch_hybrid_perfsim_L1_WM                    0 # Get L1 Write Misses for Accelwattch-Hybrid from Accel-Sim
-accelwattch_hybrid_perfsim_L2_RH                    0 # Get L2 Read Hits for Accelwattch-Hybrid from Accel-Sim
-accelwattch_hybrid_perfsim_L2_RM                    0 # Get L2 Read Misses for Accelwattch-Hybrid from Accel-Sim
-accelwattch_hybrid_perfsim_L2_WH                    0 # Get L2 Write Hits for Accelwattch-Hybrid from Accel-Sim
-accelwattch_hybrid_perfsim_L2_WM                    0 # Get L2 Write Misses for Accelwattch-Hybrid from Accel-Sim
-accelwattch_hybrid_perfsim_CC_ACC                    0 # Get Constant Cache Acesses for Accelwattch-Hybrid from Accel-Sim
-accelwattch_hybrid_perfsim_SHARED_ACC                    0 # Get Shared Memory Acesses for Accelwattch-Hybrid from Accel-Sim
-accelwattch_hybrid_perfsim_DRAM_RD                    0 # Get DRAM Reads for Accelwattch-Hybrid from Accel-Sim
-accelwattch_hybrid_perfsim_DRAM_WR                    0 # Get DRAM Writes for Accelwattch-Hybrid from Accel-Sim
-accelwattch_hybrid_perfsim_NOC                    0 # Get Interconnect Acesses for Accelwattch-Hybrid from Accel-Sim
-accelwattch_hybrid_perfsim_PIPE_DUTY                    0 # Get Pipeline Duty Cycle Acesses for Accelwattch-Hybrid from Accel-Sim
-accelwattch_hybrid_perfsim_NUM_SM_IDLE                    0 # Get Number of Idle SMs for Accelwattch-Hybrid from Accel-Sim
-accelwattch_hybrid_perfsim_CYCLES                    0 # Get Executed Cycles for Accelwattch-Hybrid from Accel-Sim
-accelwattch_hybrid_perfsim_VOLTAGE                    0 # Get Chip Voltage for Accelwattch-Hybrid from Accel-Sim
-power_trace_enabled                    0 # produce a file for the power trace (1=On, 0=Off)
-power_trace_zlevel                     0 # Compression level of the power trace output log (0=no comp, 9=highest)
-steady_power_levels_enabled                    0 # produce a file for the steady power levels (1=On, 0=Off)
-steady_state_definition                  8:4 # allowed deviation:number of samples
-gpgpu_max_cycle                        0 # terminates gpu simulation early (0 = no limit)
-gpgpu_max_insn                         0 # terminates gpu simulation early (0 = no limit)
-gpgpu_max_cta                          0 # terminates gpu simulation early (0 = no limit)
-gpgpu_max_completed_cta                    0 # terminates gpu simulation early (0 = no limit)
-gpgpu_runtime_stat                  1000 # display runtime statistics such as dram utilization {<freq>:<flag>}
-liveness_message_freq                    1 # Minimum number of seconds between simulation liveness messages (0 = always print)
-gpgpu_compute_capability_major                    7 # Major compute capability version number
-gpgpu_compute_capability_minor                    5 # Minor compute capability version number
-gpgpu_flush_l1_cache                    1 # Flush L1 cache at the end of each kernel call
-gpgpu_flush_l2_cache                    0 # Flush L2 cache at the end of each kernel call
-gpgpu_deadlock_detect                    1 # Stop the simulation at deadlock (1=on (default), 0=off)
-gpgpu_ptx_instruction_classification                    0 # if enabled will classify ptx instruction types per kernel (Max 255 kernels now)
-gpgpu_ptx_sim_mode                     0 # Select between Performance (default) or Functional simulation (1)
-gpgpu_clock_domains 1365:1365:1365:3500.5 # Clock Domain Frequencies in MhZ {<Core Clock>:<ICNT Clock>:<L2 Clock>:<DRAM Clock>}
-gpgpu_max_concurrent_kernel                  128 # maximum kernels that can run concurrently on GPU, set this value according to max resident grids for your compute capability
-gpgpu_cflog_interval                    0 # Interval between each snapshot in control flow logger
-visualizer_enabled                     0 # Turn on visualizer output (1=On, 0=Off)
-visualizer_outputfile                 NULL # Specifies the output log file for visualizer
-visualizer_zlevel                      6 # Compression level of the visualizer output log (0=no comp, 9=highest)
-gpgpu_stack_size_limit                 1024 # GPU thread stack size
-gpgpu_heap_size_limit              8388608 # GPU malloc heap size 
-gpgpu_runtime_sync_depth_limit                    2 # GPU device runtime synchronize depth
-gpgpu_runtime_pending_launch_count_limit                 2048 # GPU device runtime pending launch count
-trace_enabled                          0 # Turn on traces
-trace_components                    none # comma seperated list of traces to enable. Complete list found in trace_streams.tup. Default none
-trace_sampling_core                    0 # The core which is printed using CORE_DPRINTF. Default 0
-trace_sampling_memory_partition                   -1 # The memory partition which is printed using MEMPART_DPRINTF. Default -1 (i.e. all)
-enable_ptx_file_line_stats                    1 # Turn on PTX source line statistic profiling. (1 = On)
-ptx_line_stats_filename gpgpu_inst_stats.txt # Output file for PTX source line statistics.
-gpgpu_kernel_launch_latency                 5000 # Kernel launch latency in cycles. Default: 0
-gpgpu_cdp_enabled                      0 # Turn on CDP
-gpgpu_TB_launch_latency                    0 # thread block launch latency in cycles. Default: 0
-mem_runtime_stat                     100 # memory access runtime profiling sampling freq
-L1D_metrics                            0 # memory access runtime profiling for L1 data cache
-noncoal_metrics                        0 # memory access runtime profiling for shared memory
-L2_metrics                             0 # memory access runtime profiling for L2 cache
-DRAM_metrics                           0 # memory access runtime profiling for DRAM
-Shmem_metrics                          0 # memory access runtime profiling for noncoalesced accesses
-store_enable                           0 # Enable stores for memory profiling
-accumulate_stats                       0 # Accumulate stats for the memory profiling
-dump_enable                            0 # Process dump enable flag - (def = 0)
-flush_l1d                              0 # Enable flushings for L1D caches - (default = 0)
-flush_l2                               0 # Enable flushings for L2 caches - (default = 0)
-flush_dram                             0 # Enable flushings for DRAM - (default = 0)
-flush_noncoalesceds                    0 # Enable flushings for non coalesced accesses - (default = 0)
-flush_shmems                           0 # Enable flushings for shared memory accesses - (default = 0)
-error_percentage                       2 # Error percentage for the flushes - (default = 1)
-flush_acc_type                         2 # Flush access types
-monitor_sampling_cycle                  200 # Monitoring sampling cycle - (default = 5000)
DRAM Timing Options:
nbk                                    16 # number of banks
CCD                                     4 # column to column delay
RRD                                    12 # minimal delay between activation of rows in different banks
RCD                                    24 # row to column delay
RAS                                    55 # time needed to activate row
RP                                     24 # time needed to precharge (deactivate) row
RC                                     78 # row cycle time
CDLR                                   10 # switching from write to read (changes tWTR)
WR                                     24 # last data-in to row precharge
CL                                     24 # CAS latency
WL                                      8 # Write latency
nbkgrp                                  4 # number of bank groups
CCDL                                    6 # column to column delay between accesses to different bank groups
RTPL                                    4 # read to precharge delay between accesses to different bank groups
Total number of memory sub partition = 24
addr_dec_mask[CHIP]  = 0000000000000000 	high:64 low:0
addr_dec_mask[BK]    = 0000000000007080 	high:15 low:7
addr_dec_mask[ROW]   = 000000000fff8000 	high:28 low:15
addr_dec_mask[COL]   = 0000000000000f7f 	high:12 low:0
addr_dec_mask[BURST] = 000000000000001f 	high:5 low:0
sub_partition_id_mask = 0000000000000080
GPGPU-Sim uArch: clock freqs: 1365000000.000000:1365000000.000000:1365000000.000000:3500500000.000000
GPGPU-Sim uArch: clock periods: 0.00000000073260073260:0.00000000073260073260:0.00000000073260073260:0.00000000028567347522
*** Initializing Memory Statistics ***
GPGPU-Sim uArch: performance model initialization complete.
--------------------------------------------------------------
L1D access stats (for 0'th SM) 
--	Kid = 0 || L1D Acc = 106904, -- Miss = 23975, rate = 0.2243, -- PendHits = 56887, rate = 0.5321-- ResFail = 1090, rate = 0.0102
Error Per = 100 || Flushes = 239 || slicingInterval = 5000
--------------------------------------------------------------
L1D access stats (for 1'th SM) 
--	Kid = 0 || L1D Acc = 106904, -- Miss = 23975, rate = 0.2243, -- PendHits = 57088, rate = 0.5340-- ResFail = 1315, rate = 0.0123
Error Per = 100 || Flushes = 239 || slicingInterval = 5000
--------------------------------------------------------------
L1D access stats (for 2'th SM) 
--	Kid = 0 || L1D Acc = 106904, -- Miss = 23975, rate = 0.2243, -- PendHits = 56146, rate = 0.5252-- ResFail = 1401, rate = 0.0131
Error Per = 100 || Flushes = 239 || slicingInterval = 5000
--------------------------------------------------------------
L1D access stats (for 3'th SM) 
--	Kid = 0 || L1D Acc = 106904, -- Miss = 23975, rate = 0.2243, -- PendHits = 57179, rate = 0.5349-- ResFail = 1267, rate = 0.0119
Error Per = 100 || Flushes = 239 || slicingInterval = 5000
--------------------------------------------------------------
L1D access stats (for 4'th SM) 
--	Kid = 0 || L1D Acc = 106904, -- Miss = 23975, rate = 0.2243, -- PendHits = 56035, rate = 0.5242-- ResFail = 1240, rate = 0.0116
Error Per = 100 || Flushes = 239 || slicingInterval = 5000
--------------------------------------------------------------
L1D access stats (for 5'th SM) 
--	Kid = 0 || L1D Acc = 106904, -- Miss = 23975, rate = 0.2243, -- PendHits = 58392, rate = 0.5462-- ResFail = 1107, rate = 0.0104
Error Per = 100 || Flushes = 239 || slicingInterval = 5000
--------------------------------------------------------------
L1D access stats (for 6'th SM) 
--	Kid = 0 || L1D Acc = 106904, -- Miss = 23975, rate = 0.2243, -- PendHits = 56567, rate = 0.5291-- ResFail = 1244, rate = 0.0116
Error Per = 100 || Flushes = 239 || slicingInterval = 5000
--------------------------------------------------------------
L1D access stats (for 7'th SM) 
--	Kid = 0 || L1D Acc = 106904, -- Miss = 23975, rate = 0.2243, -- PendHits = 60613, rate = 0.5670-- ResFail = 1300, rate = 0.0122
Error Per = 100 || Flushes = 239 || slicingInterval = 5000
--------------------------------------------------------------
L1D access stats (for 8'th SM) 
--	Kid = 0 || L1D Acc = 106904, -- Miss = 23975, rate = 0.2243, -- PendHits = 56099, rate = 0.5248-- ResFail = 1103, rate = 0.0103
Error Per = 100 || Flushes = 239 || slicingInterval = 5000
--------------------------------------------------------------
L1D access stats (for 9'th SM) 
--	Kid = 0 || L1D Acc = 106904, -- Miss = 23975, rate = 0.2243, -- PendHits = 56765, rate = 0.5310-- ResFail = 1289, rate = 0.0121
Error Per = 100 || Flushes = 239 || slicingInterval = 5000
--------------------------------------------------------------
L1D access stats (for 10'th SM) 
--	Kid = 0 || L1D Acc = 106904, -- Miss = 23975, rate = 0.2243, -- PendHits = 57235, rate = 0.5354-- ResFail = 1088, rate = 0.0102
Error Per = 100 || Flushes = 239 || slicingInterval = 5000
--------------------------------------------------------------
L1D access stats (for 11'th SM) 
--	Kid = 0 || L1D Acc = 106904, -- Miss = 23975, rate = 0.2243, -- PendHits = 58089, rate = 0.5434-- ResFail = 1048, rate = 0.0098
Error Per = 100 || Flushes = 239 || slicingInterval = 5000
--------------------------------------------------------------
L1D access stats (for 12'th SM) 
--	Kid = 0 || L1D Acc = 160356, -- Miss = 35437, rate = 0.2210, -- PendHits = 79143, rate = 0.4935-- ResFail = 1513, rate = 0.0094
Error Per = 100 || Flushes = 354 || slicingInterval = 5000
--------------------------------------------------------------
L1D access stats (for 13'th SM) 
--	Kid = 0 || L1D Acc = 106904, -- Miss = 23975, rate = 0.2243, -- PendHits = 59756, rate = 0.5590-- ResFail = 1032, rate = 0.0097
Error Per = 100 || Flushes = 239 || slicingInterval = 5000
--------------------------------------------------------------
L1D access stats (for 14'th SM) 
--	Kid = 0 || L1D Acc = 106904, -- Miss = 23975, rate = 0.2243, -- PendHits = 54145, rate = 0.5065-- ResFail = 1008, rate = 0.0094
Error Per = 100 || Flushes = 239 || slicingInterval = 5000
--------------------------------------------------------------
L1D access stats (for 15'th SM) 
--	Kid = 0 || L1D Acc = 106904, -- Miss = 23975, rate = 0.2243, -- PendHits = 57671, rate = 0.5395-- ResFail = 1063, rate = 0.0099
Error Per = 100 || Flushes = 239 || slicingInterval = 5000
--------------------------------------------------------------
L1D access stats (for 16'th SM) 
--	Kid = 0 || L1D Acc = 106904, -- Miss = 23975, rate = 0.2243, -- PendHits = 59722, rate = 0.5587-- ResFail = 921, rate = 0.0086
Error Per = 100 || Flushes = 239 || slicingInterval = 5000
--------------------------------------------------------------
L1D access stats (for 17'th SM) 
--	Kid = 0 || L1D Acc = 106904, -- Miss = 23975, rate = 0.2243, -- PendHits = 60635, rate = 0.5672-- ResFail = 1062, rate = 0.0099
Error Per = 100 || Flushes = 239 || slicingInterval = 5000
--------------------------------------------------------------
L1D access stats (for 18'th SM) 
--	Kid = 0 || L1D Acc = 106904, -- Miss = 23975, rate = 0.2243, -- PendHits = 56375, rate = 0.5273-- ResFail = 1219, rate = 0.0114
Error Per = 100 || Flushes = 239 || slicingInterval = 5000
--------------------------------------------------------------
L1D access stats (for 19'th SM) 
--	Kid = 0 || L1D Acc = 106904, -- Miss = 23975, rate = 0.2243, -- PendHits = 58671, rate = 0.5488-- ResFail = 1170, rate = 0.0109
Error Per = 100 || Flushes = 239 || slicingInterval = 5000
--------------------------------------------------------------
L1D access stats (for 20'th SM) 
--	Kid = 0 || L1D Acc = 106904, -- Miss = 23975, rate = 0.2243, -- PendHits = 58756, rate = 0.5496-- ResFail = 950, rate = 0.0089
Error Per = 100 || Flushes = 239 || slicingInterval = 5000
--------------------------------------------------------------
L1D access stats (for 21'th SM) 
--	Kid = 0 || L1D Acc = 106904, -- Miss = 23975, rate = 0.2243, -- PendHits = 59483, rate = 0.5564-- ResFail = 1102, rate = 0.0103
Error Per = 100 || Flushes = 239 || slicingInterval = 5000
--------------------------------------------------------------
L1D access stats (for 22'th SM) 
--	Kid = 0 || L1D Acc = 106904, -- Miss = 23975, rate = 0.2243, -- PendHits = 56853, rate = 0.5318-- ResFail = 1063, rate = 0.0099
Error Per = 100 || Flushes = 239 || slicingInterval = 5000
--------------------------------------------------------------
L1D access stats (for 23'th SM) 
--	Kid = 0 || L1D Acc = 106904, -- Miss = 23975, rate = 0.2243, -- PendHits = 58459, rate = 0.5468-- ResFail = 986, rate = 0.0092
Error Per = 100 || Flushes = 239 || slicingInterval = 5000
--------------------------------------------------------------
L1D access stats (for 24'th SM) 
--	Kid = 0 || L1D Acc = 106904, -- Miss = 23975, rate = 0.2243, -- PendHits = 61113, rate = 0.5717-- ResFail = 1102, rate = 0.0103
Error Per = 100 || Flushes = 239 || slicingInterval = 5000
--------------------------------------------------------------
L1D access stats (for 25'th SM) 
--	Kid = 0 || L1D Acc = 106904, -- Miss = 23975, rate = 0.2243, -- PendHits = 56574, rate = 0.5292-- ResFail = 1168, rate = 0.0109
Error Per = 100 || Flushes = 239 || slicingInterval = 5000
--------------------------------------------------------------
L1D access stats (for 26'th SM) 
--	Kid = 0 || L1D Acc = 106904, -- Miss = 23975, rate = 0.2243, -- PendHits = 59950, rate = 0.5608-- ResFail = 963, rate = 0.0090
Error Per = 100 || Flushes = 239 || slicingInterval = 5000
--------------------------------------------------------------
L1D access stats (for 27'th SM) 
--	Kid = 0 || L1D Acc = 160356, -- Miss = 35437, rate = 0.2210, -- PendHits = 86616, rate = 0.5401-- ResFail = 1764, rate = 0.0110
Error Per = 100 || Flushes = 354 || slicingInterval = 5000
--------------------------------------------------------------
L1D access stats (for 28'th SM) 
--	Kid = 0 || L1D Acc = 160356, -- Miss = 35437, rate = 0.2210, -- PendHits = 83775, rate = 0.5224-- ResFail = 1515, rate = 0.0094
Error Per = 100 || Flushes = 354 || slicingInterval = 5000
--------------------------------------------------------------
L1D access stats (for 29'th SM) 
--	Kid = 0 || L1D Acc = 160356, -- Miss = 35437, rate = 0.2210, -- PendHits = 80174, rate = 0.5000-- ResFail = 1556, rate = 0.0097
Error Per = 100 || Flushes = 354 || slicingInterval = 5000
5d26d601c0a183a3fd71acc9927882dc  /home/pars/Documents/expSetups/a18/LSTM_L1D_100_100
Extracting PTX file and ptxas options    1: LSTM_L1D_100_100.1.sm_75.ptx -arch=sm_75
Parallel calisiyor
self exe links to: /home/pars/Documents/expSetups/a18/LSTM_L1D_100_100
self exe links to: /home/pars/Documents/expSetups/a18/LSTM_L1D_100_100
11.0
GPGPU-Sim PTX: __cudaRegisterFatBinary, fat_cubin_handle = 1, filename=default
self exe links to: /home/pars/Documents/expSetups/a18/LSTM_L1D_100_100
Running md5sum using "md5sum /home/pars/Documents/expSetups/a18/LSTM_L1D_100_100 "
self exe links to: /home/pars/Documents/expSetups/a18/LSTM_L1D_100_100
Extracting specific PTX file named LSTM_L1D_100_100.1.sm_75.ptx 
GPGPU-Sim PTX: __cudaRegisterFunction _Z11ExecuteLSTMPdS_S_S_S_S_S_S_S_S_S_S_S_S_S_ : hostFun 0x0x55cc800b3e5b, fat_cubin_handle = 1
GPGPU-Sim PTX: Parsing LSTM_L1D_100_100.1.sm_75.ptx
GPGPU-Sim PTX: allocating shared region for "_ZZ11ExecuteLSTMPdS_S_S_S_S_S_S_S_S_S_S_S_S_S_E1u" from 0x0 to 0x320 (shared memory space)
GPGPU-Sim PTX: instruction assembly for function '_Z11ExecuteLSTMPdS_S_S_S_S_S_S_S_S_S_S_S_S_S_'...   done.
GPGPU-Sim PTX: finished parsing EMBEDDED .ptx file LSTM_L1D_100_100.1.sm_75.ptx
GPGPU-Sim PTX: loading globals with explicit initializers... 
GPGPU-Sim PTX: finished loading globals (0 bytes total).
GPGPU-Sim PTX: loading constants with explicit initializers...  done.
GPGPU-Sim PTX: Loading PTXInfo from LSTM_L1D_100_100.1.sm_75.ptx
GPGPU-Sim PTX: Kernel '_Z11ExecuteLSTMPdS_S_S_S_S_S_S_S_S_S_S_S_S_S_' : regs=66, lmem=0, smem=800, cmem=656
GPGPU-Sim PTX: Setting up arguments for 8 bytes starting at 0x7ffcfd27f398..
GPGPU-Sim PTX: Setting up arguments for 8 bytes starting at 0x7ffcfd27f390..
GPGPU-Sim PTX: Setting up arguments for 8 bytes starting at 0x7ffcfd27f388..
GPGPU-Sim PTX: Setting up arguments for 8 bytes starting at 0x7ffcfd27f380..
GPGPU-Sim PTX: Setting up arguments for 8 bytes starting at 0x7ffcfd27f378..
GPGPU-Sim PTX: Setting up arguments for 8 bytes starting at 0x7ffcfd27f370..
GPGPU-Sim PTX: Setting up arguments for 8 bytes starting at 0x7ffcfd27f368..
GPGPU-Sim PTX: Setting up arguments for 8 bytes starting at 0x7ffcfd27f360..
GPGPU-Sim PTX: Setting up arguments for 8 bytes starting at 0x7ffcfd27f358..
GPGPU-Sim PTX: Setting up arguments for 8 bytes starting at 0x7ffcfd27f350..
GPGPU-Sim PTX: Setting up arguments for 8 bytes starting at 0x7ffcfd27f348..
GPGPU-Sim PTX: Setting up arguments for 8 bytes starting at 0x7ffcfd27f340..
GPGPU-Sim PTX: Setting up arguments for 8 bytes starting at 0x7ffcfd27f338..
GPGPU-Sim PTX: Setting up arguments for 8 bytes starting at 0x7ffcfd27f330..
GPGPU-Sim PTX: Setting up arguments for 8 bytes starting at 0x7ffcfd27f328..

GPGPU-Sim PTX: cudaLaunch for 0x0x55cc800b3e5b (mode=performance simulation) on stream 0
GPGPU-Sim PTX: finding reconvergence points for '_Z11ExecuteLSTMPdS_S_S_S_S_S_S_S_S_S_S_S_S_S_'...
GPGPU-Sim PTX: Finding dominators for '_Z11ExecuteLSTMPdS_S_S_S_S_S_S_S_S_S_S_S_S_S_'...
GPGPU-Sim PTX: Finding immediate dominators for '_Z11ExecuteLSTMPdS_S_S_S_S_S_S_S_S_S_S_S_S_S_'...
GPGPU-Sim PTX: Finding postdominators for '_Z11ExecuteLSTMPdS_S_S_S_S_S_S_S_S_S_S_S_S_S_'...
GPGPU-Sim PTX: Finding immediate postdominators for '_Z11ExecuteLSTMPdS_S_S_S_S_S_S_S_S_S_S_S_S_S_'...
GPGPU-Sim PTX: pre-decoding instructions for '_Z11ExecuteLSTMPdS_S_S_S_S_S_S_S_S_S_S_S_S_S_'...
GPGPU-Sim PTX: reconvergence points for _Z11ExecuteLSTMPdS_S_S_S_S_S_S_S_S_S_S_S_S_S_...
GPGPU-Sim PTX:  1 (potential) branch divergence @  PC=0x088 (LSTM_L1D_100_100.1.sm_75.ptx:65) @%p1 bra $L__BB0_2;
GPGPU-Sim PTX:    immediate post dominator      @  PC=0x300 (LSTM_L1D_100_100.1.sm_75.ptx:156) ld.param.u64 %rd77, [_Z11ExecuteLSTMPdS_S_S_S_S_S_S_S_S_S_S_S_S_S__param_0];
GPGPU-Sim PTX:  2 (potential) branch divergence @  PC=0x090 (LSTM_L1D_100_100.1.sm_75.ptx:66) bra.uni $L__BB0_1;
GPGPU-Sim PTX:    immediate post dominator      @  PC=0x168 (LSTM_L1D_100_100.1.sm_75.ptx:97) add.f64 %fd54, %fd2, %fd2;
GPGPU-Sim PTX:  3 (potential) branch divergence @  PC=0x160 (LSTM_L1D_100_100.1.sm_75.ptx:94) bra.uni $L__BB0_3;
GPGPU-Sim PTX:    immediate post dominator      @  PC=0x300 (LSTM_L1D_100_100.1.sm_75.ptx:156) ld.param.u64 %rd77, [_Z11ExecuteLSTMPdS_S_S_S_S_S_S_S_S_S_S_S_S_S__param_0];
GPGPU-Sim PTX:  4 (potential) branch divergence @  PC=0x358 (LSTM_L1D_100_100.1.sm_75.ptx:167) @%p3 bra $L__BB0_6;
GPGPU-Sim PTX:    immediate post dominator      @  PC=0x380 (LSTM_L1D_100_100.1.sm_75.ptx:176) ld.param.u64 %rd81, [_Z11ExecuteLSTMPdS_S_S_S_S_S_S_S_S_S_S_S_S_S__param_3];
GPGPU-Sim PTX:  5 (potential) branch divergence @  PC=0x370 (LSTM_L1D_100_100.1.sm_75.ptx:171) @%p4 bra $L__BB0_6;
GPGPU-Sim PTX:    immediate post dominator      @  PC=0x380 (LSTM_L1D_100_100.1.sm_75.ptx:176) ld.param.u64 %rd81, [_Z11ExecuteLSTMPdS_S_S_S_S_S_S_S_S_S_S_S_S_S__param_3];
GPGPU-Sim PTX:  6 (potential) branch divergence @  PC=0x420 (LSTM_L1D_100_100.1.sm_75.ptx:196) @%p5 bra $L__BB0_9;
GPGPU-Sim PTX:    immediate post dominator      @  PC=0x448 (LSTM_L1D_100_100.1.sm_75.ptx:205) mul.f64 %fd129, %fd10, 0d0000000000000000;
GPGPU-Sim PTX:  7 (potential) branch divergence @  PC=0x438 (LSTM_L1D_100_100.1.sm_75.ptx:200) @%p6 bra $L__BB0_9;
GPGPU-Sim PTX:    immediate post dominator      @  PC=0x448 (LSTM_L1D_100_100.1.sm_75.ptx:205) mul.f64 %fd129, %fd10, 0d0000000000000000;
GPGPU-Sim PTX:  8 (potential) branch divergence @  PC=0x4a0 (LSTM_L1D_100_100.1.sm_75.ptx:222) @%p10 bra $L__BB0_11;
GPGPU-Sim PTX:    immediate post dominator      @  PC=0x718 (LSTM_L1D_100_100.1.sm_75.ptx:313) mov.u32 %r54, %tid.x;
GPGPU-Sim PTX:  9 (potential) branch divergence @  PC=0x4a8 (LSTM_L1D_100_100.1.sm_75.ptx:223) bra.uni $L__BB0_10;
GPGPU-Sim PTX:    immediate post dominator      @  PC=0x580 (LSTM_L1D_100_100.1.sm_75.ptx:254) add.f64 %fd131, %fd15, %fd15;
GPGPU-Sim PTX: 10 (potential) branch divergence @  PC=0x578 (LSTM_L1D_100_100.1.sm_75.ptx:251) bra.uni $L__BB0_12;
GPGPU-Sim PTX:    immediate post dominator      @  PC=0x718 (LSTM_L1D_100_100.1.sm_75.ptx:313) mov.u32 %r54, %tid.x;
GPGPU-Sim PTX: 11 (potential) branch divergence @  PC=0x768 (LSTM_L1D_100_100.1.sm_75.ptx:323) @%p12 bra $L__BB0_16;
GPGPU-Sim PTX:    immediate post dominator      @  PC=0x848 (LSTM_L1D_100_100.1.sm_75.ptx:357) mov.u32 %r55, %tid.x;
GPGPU-Sim PTX: 12 (potential) branch divergence @  PC=0x828 (LSTM_L1D_100_100.1.sm_75.ptx:350) @%p13 bra $L__BB0_14;
GPGPU-Sim PTX:    immediate post dominator      @  PC=0x830 (LSTM_L1D_100_100.1.sm_75.ptx:352) ld.param.u64 %rd76, [_Z11ExecuteLSTMPdS_S_S_S_S_S_S_S_S_S_S_S_S_S__param_14];
GPGPU-Sim PTX: 13 (potential) branch divergence @  PC=0xa48 (LSTM_L1D_100_100.1.sm_75.ptx:423) @%p14 bra $L__BB0_17;
GPGPU-Sim PTX:    immediate post dominator      @  PC=0xa50 (LSTM_L1D_100_100.1.sm_75.ptx:425) mov.u32 %r58, %tid.x;
GPGPU-Sim PTX: 14 (potential) branch divergence @  PC=0xad8 (LSTM_L1D_100_100.1.sm_75.ptx:448) @%p15 bra $L__BB0_20;
GPGPU-Sim PTX:    immediate post dominator      @  PC=0xd50 (LSTM_L1D_100_100.1.sm_75.ptx:539) mov.u32 %r56, %tid.x;
GPGPU-Sim PTX: 15 (potential) branch divergence @  PC=0xae0 (LSTM_L1D_100_100.1.sm_75.ptx:449) bra.uni $L__BB0_19;
GPGPU-Sim PTX:    immediate post dominator      @  PC=0xbb8 (LSTM_L1D_100_100.1.sm_75.ptx:480) add.f64 %fd247, %fd31, %fd31;
GPGPU-Sim PTX: 16 (potential) branch divergence @  PC=0xbb0 (LSTM_L1D_100_100.1.sm_75.ptx:477) bra.uni $L__BB0_21;
GPGPU-Sim PTX:    immediate post dominator      @  PC=0xd50 (LSTM_L1D_100_100.1.sm_75.ptx:539) mov.u32 %r56, %tid.x;
GPGPU-Sim PTX: 17 (potential) branch divergence @  PC=0xdc8 (LSTM_L1D_100_100.1.sm_75.ptx:554) @%p17 bra $L__BB0_24;
GPGPU-Sim PTX:    immediate post dominator      @  PC=0xdf0 (LSTM_L1D_100_100.1.sm_75.ptx:563) mov.u32 %r57, %tid.x;
GPGPU-Sim PTX: 18 (potential) branch divergence @  PC=0xde0 (LSTM_L1D_100_100.1.sm_75.ptx:558) @%p18 bra $L__BB0_24;
GPGPU-Sim PTX:    immediate post dominator      @  PC=0xdf0 (LSTM_L1D_100_100.1.sm_75.ptx:563) mov.u32 %r57, %tid.x;
GPGPU-Sim PTX: 19 (potential) branch divergence @  PC=0xe60 (LSTM_L1D_100_100.1.sm_75.ptx:577) @%p19 bra $L__BB0_27;
GPGPU-Sim PTX:    immediate post dominator      @  PC=0xe88 (LSTM_L1D_100_100.1.sm_75.ptx:586) ld.global.f64 %fd323, [%rd11];
GPGPU-Sim PTX: 20 (potential) branch divergence @  PC=0xe78 (LSTM_L1D_100_100.1.sm_75.ptx:581) @%p20 bra $L__BB0_27;
GPGPU-Sim PTX:    immediate post dominator      @  PC=0xe88 (LSTM_L1D_100_100.1.sm_75.ptx:586) ld.global.f64 %fd323, [%rd11];
GPGPU-Sim PTX: 21 (potential) branch divergence @  PC=0xeb0 (LSTM_L1D_100_100.1.sm_75.ptx:591) @%p21 bra $L__BB0_30;
GPGPU-Sim PTX:    immediate post dominator      @  PC=0xed8 (LSTM_L1D_100_100.1.sm_75.ptx:600) mul.f64 %fd327, %fd14, %fd416;
GPGPU-Sim PTX: 22 (potential) branch divergence @  PC=0xec8 (LSTM_L1D_100_100.1.sm_75.ptx:595) @%p22 bra $L__BB0_30;
GPGPU-Sim PTX:    immediate post dominator      @  PC=0xed8 (LSTM_L1D_100_100.1.sm_75.ptx:600) mul.f64 %fd327, %fd14, %fd416;
GPGPU-Sim PTX: 23 (potential) branch divergence @  PC=0xf10 (LSTM_L1D_100_100.1.sm_75.ptx:613) @%p23 bra $L__BB0_32;
GPGPU-Sim PTX:    immediate post dominator      @  PC=0x1188 (LSTM_L1D_100_100.1.sm_75.ptx:704) mul.f64 %fd393, %fd417, %fd418;
GPGPU-Sim PTX: 24 (potential) branch divergence @  PC=0xf18 (LSTM_L1D_100_100.1.sm_75.ptx:614) bra.uni $L__BB0_31;
GPGPU-Sim PTX:    immediate post dominator      @  PC=0xff0 (LSTM_L1D_100_100.1.sm_75.ptx:645) add.f64 %fd328, %fd45, %fd45;
GPGPU-Sim PTX: 25 (potential) branch divergence @  PC=0xfe8 (LSTM_L1D_100_100.1.sm_75.ptx:642) bra.uni $L__BB0_33;
GPGPU-Sim PTX:    immediate post dominator      @  PC=0x1188 (LSTM_L1D_100_100.1.sm_75.ptx:704) mul.f64 %fd393, %fd417, %fd418;
GPGPU-Sim PTX: 26 (potential) branch divergence @  PC=0x11a0 (LSTM_L1D_100_100.1.sm_75.ptx:707) @%p12 bra $L__BB0_37;
GPGPU-Sim PTX:    immediate post dominator      @  PC=0x1280 (LSTM_L1D_100_100.1.sm_75.ptx:741) ret;
GPGPU-Sim PTX: 27 (potential) branch divergence @  PC=0x1260 (LSTM_L1D_100_100.1.sm_75.ptx:734) @%p26 bra $L__BB0_35;
GPGPU-Sim PTX:    immediate post dominator      @  PC=0x1268 (LSTM_L1D_100_100.1.sm_75.ptx:736) ld.param.u64 %rd70, [_Z11ExecuteLSTMPdS_S_S_S_S_S_S_S_S_S_S_S_S_S__param_14];
GPGPU-Sim PTX: ... end of reconvergence points for _Z11ExecuteLSTMPdS_S_S_S_S_S_S_S_S_S_S_S_S_S_
GPGPU-Sim PTX: ... done pre-decoding instructions for '_Z11ExecuteLSTMPdS_S_S_S_S_S_S_S_S_S_S_S_S_S_'.
GPGPU-Sim PTX: pushing kernel '_Z11ExecuteLSTMPdS_S_S_S_S_S_S_S_S_S_S_S_S_S_' to stream 0, gridDim= (64,1,1) blockDim = (512,1,1) 
GPGPU-Sim uArch: Shader 0 bind to kernel 1 '_Z11ExecuteLSTMPdS_S_S_S_S_S_S_S_S_S_S_S_S_S_'
GPGPU-Sim uArch: CTA/core = 1, limited by: regs
GPGPU-Sim: Reconfigure L1 cache to 64KB
GPGPU-Sim uArch: Shader 1 bind to kernel 1 '_Z11ExecuteLSTMPdS_S_S_S_S_S_S_S_S_S_S_S_S_S_'
GPGPU-Sim uArch: Shader 2 bind to kernel 1 '_Z11ExecuteLSTMPdS_S_S_S_S_S_S_S_S_S_S_S_S_S_'
GPGPU-Sim uArch: Shader 3 bind to kernel 1 '_Z11ExecuteLSTMPdS_S_S_S_S_S_S_S_S_S_S_S_S_S_'
GPGPU-Sim uArch: Shader 4 bind to kernel 1 '_Z11ExecuteLSTMPdS_S_S_S_S_S_S_S_S_S_S_S_S_S_'
GPGPU-Sim uArch: Shader 5 bind to kernel 1 '_Z11ExecuteLSTMPdS_S_S_S_S_S_S_S_S_S_S_S_S_S_'
GPGPU-Sim uArch: Shader 6 bind to kernel 1 '_Z11ExecuteLSTMPdS_S_S_S_S_S_S_S_S_S_S_S_S_S_'
GPGPU-Sim uArch: Shader 7 bind to kernel 1 '_Z11ExecuteLSTMPdS_S_S_S_S_S_S_S_S_S_S_S_S_S_'
GPGPU-Sim uArch: Shader 8 bind to kernel 1 '_Z11ExecuteLSTMPdS_S_S_S_S_S_S_S_S_S_S_S_S_S_'
GPGPU-Sim uArch: Shader 9 bind to kernel 1 '_Z11ExecuteLSTMPdS_S_S_S_S_S_S_S_S_S_S_S_S_S_'
GPGPU-Sim uArch: Shader 10 bind to kernel 1 '_Z11ExecuteLSTMPdS_S_S_S_S_S_S_S_S_S_S_S_S_S_'
GPGPU-Sim uArch: Shader 11 bind to kernel 1 '_Z11ExecuteLSTMPdS_S_S_S_S_S_S_S_S_S_S_S_S_S_'
GPGPU-Sim uArch: Shader 12 bind to kernel 1 '_Z11ExecuteLSTMPdS_S_S_S_S_S_S_S_S_S_S_S_S_S_'
GPGPU-Sim uArch: Shader 13 bind to kernel 1 '_Z11ExecuteLSTMPdS_S_S_S_S_S_S_S_S_S_S_S_S_S_'
GPGPU-Sim uArch: Shader 14 bind to kernel 1 '_Z11ExecuteLSTMPdS_S_S_S_S_S_S_S_S_S_S_S_S_S_'
GPGPU-Sim uArch: Shader 15 bind to kernel 1 '_Z11ExecuteLSTMPdS_S_S_S_S_S_S_S_S_S_S_S_S_S_'
GPGPU-Sim uArch: Shader 16 bind to kernel 1 '_Z11ExecuteLSTMPdS_S_S_S_S_S_S_S_S_S_S_S_S_S_'
GPGPU-Sim uArch: Shader 17 bind to kernel 1 '_Z11ExecuteLSTMPdS_S_S_S_S_S_S_S_S_S_S_S_S_S_'
GPGPU-Sim uArch: Shader 18 bind to kernel 1 '_Z11ExecuteLSTMPdS_S_S_S_S_S_S_S_S_S_S_S_S_S_'
GPGPU-Sim uArch: Shader 19 bind to kernel 1 '_Z11ExecuteLSTMPdS_S_S_S_S_S_S_S_S_S_S_S_S_S_'
GPGPU-Sim uArch: Shader 20 bind to kernel 1 '_Z11ExecuteLSTMPdS_S_S_S_S_S_S_S_S_S_S_S_S_S_'
GPGPU-Sim uArch: Shader 21 bind to kernel 1 '_Z11ExecuteLSTMPdS_S_S_S_S_S_S_S_S_S_S_S_S_S_'
GPGPU-Sim uArch: Shader 22 bind to kernel 1 '_Z11ExecuteLSTMPdS_S_S_S_S_S_S_S_S_S_S_S_S_S_'
GPGPU-Sim uArch: Shader 23 bind to kernel 1 '_Z11ExecuteLSTMPdS_S_S_S_S_S_S_S_S_S_S_S_S_S_'
GPGPU-Sim uArch: Shader 24 bind to kernel 1 '_Z11ExecuteLSTMPdS_S_S_S_S_S_S_S_S_S_S_S_S_S_'
GPGPU-Sim uArch: Shader 25 bind to kernel 1 '_Z11ExecuteLSTMPdS_S_S_S_S_S_S_S_S_S_S_S_S_S_'
GPGPU-Sim uArch: Shader 26 bind to kernel 1 '_Z11ExecuteLSTMPdS_S_S_S_S_S_S_S_S_S_S_S_S_S_'
GPGPU-Sim uArch: Shader 27 bind to kernel 1 '_Z11ExecuteLSTMPdS_S_S_S_S_S_S_S_S_S_S_S_S_S_'
GPGPU-Sim uArch: Shader 28 bind to kernel 1 '_Z11ExecuteLSTMPdS_S_S_S_S_S_S_S_S_S_S_S_S_S_'
GPGPU-Sim uArch: Shader 29 bind to kernel 1 '_Z11ExecuteLSTMPdS_S_S_S_S_S_S_S_S_S_S_S_S_S_'
Simulation cycle for kernel 0 is = 10000
Simulation cycle for kernel 0 is = 15000
Simulation cycle for kernel 0 is = 20000
Simulation cycle for kernel 0 is = 25000
Simulation cycle for kernel 0 is = 30000
Simulation cycle for kernel 0 is = 35000
Simulation cycle for kernel 0 is = 40000
Simulation cycle for kernel 0 is = 45000
Simulation cycle for kernel 0 is = 50000
Simulation cycle for kernel 0 is = 55000
Simulation cycle for kernel 0 is = 60000
Simulation cycle for kernel 0 is = 65000
Simulation cycle for kernel 0 is = 70000
Simulation cycle for kernel 0 is = 75000
Simulation cycle for kernel 0 is = 80000
Simulation cycle for kernel 0 is = 85000
Simulation cycle for kernel 0 is = 90000
Simulation cycle for kernel 0 is = 95000
Simulation cycle for kernel 0 is = 100000
Simulation cycle for kernel 0 is = 105000
Simulation cycle for kernel 0 is = 110000
Simulation cycle for kernel 0 is = 115000
Simulation cycle for kernel 0 is = 120000
Simulation cycle for kernel 0 is = 125000
Simulation cycle for kernel 0 is = 130000
Simulation cycle for kernel 0 is = 135000
Simulation cycle for kernel 0 is = 140000
Simulation cycle for kernel 0 is = 145000
Simulation cycle for kernel 0 is = 150000
Simulation cycle for kernel 0 is = 155000
Simulation cycle for kernel 0 is = 160000
Simulation cycle for kernel 0 is = 165000
Simulation cycle for kernel 0 is = 170000
Simulation cycle for kernel 0 is = 175000
Simulation cycle for kernel 0 is = 180000
Simulation cycle for kernel 0 is = 185000
Simulation cycle for kernel 0 is = 190000
Simulation cycle for kernel 0 is = 195000
Simulation cycle for kernel 0 is = 200000
Simulation cycle for kernel 0 is = 205000
GPGPU-Sim uArch: Shader 20 bind to kernel 1 '_Z11ExecuteLSTMPdS_S_S_S_S_S_S_S_S_S_S_S_S_S_'
GPGPU-Sim uArch: Shader 5 bind to kernel 1 '_Z11ExecuteLSTMPdS_S_S_S_S_S_S_S_S_S_S_S_S_S_'
GPGPU-Sim uArch: Shader 18 bind to kernel 1 '_Z11ExecuteLSTMPdS_S_S_S_S_S_S_S_S_S_S_S_S_S_'
GPGPU-Sim uArch: Shader 28 bind to kernel 1 '_Z11ExecuteLSTMPdS_S_S_S_S_S_S_S_S_S_S_S_S_S_'
GPGPU-Sim uArch: Shader 0 bind to kernel 1 '_Z11ExecuteLSTMPdS_S_S_S_S_S_S_S_S_S_S_S_S_S_'
GPGPU-Sim uArch: Shader 1 bind to kernel 1 '_Z11ExecuteLSTMPdS_S_S_S_S_S_S_S_S_S_S_S_S_S_'
GPGPU-Sim uArch: Shader 21 bind to kernel 1 '_Z11ExecuteLSTMPdS_S_S_S_S_S_S_S_S_S_S_S_S_S_'
GPGPU-Sim uArch: Shader 29 bind to kernel 1 '_Z11ExecuteLSTMPdS_S_S_S_S_S_S_S_S_S_S_S_S_S_'
GPGPU-Sim uArch: Shader 25 bind to kernel 1 '_Z11ExecuteLSTMPdS_S_S_S_S_S_S_S_S_S_S_S_S_S_'
GPGPU-Sim uArch: Shader 14 bind to kernel 1 '_Z11ExecuteLSTMPdS_S_S_S_S_S_S_S_S_S_S_S_S_S_'
GPGPU-Sim uArch: Shader 19 bind to kernel 1 '_Z11ExecuteLSTMPdS_S_S_S_S_S_S_S_S_S_S_S_S_S_'
GPGPU-Sim uArch: Shader 6 bind to kernel 1 '_Z11ExecuteLSTMPdS_S_S_S_S_S_S_S_S_S_S_S_S_S_'
GPGPU-Sim uArch: Shader 17 bind to kernel 1 '_Z11ExecuteLSTMPdS_S_S_S_S_S_S_S_S_S_S_S_S_S_'
GPGPU-Sim uArch: Shader 3 bind to kernel 1 '_Z11ExecuteLSTMPdS_S_S_S_S_S_S_S_S_S_S_S_S_S_'
GPGPU-Sim uArch: Shader 26 bind to kernel 1 '_Z11ExecuteLSTMPdS_S_S_S_S_S_S_S_S_S_S_S_S_S_'
GPGPU-Sim uArch: Shader 10 bind to kernel 1 '_Z11ExecuteLSTMPdS_S_S_S_S_S_S_S_S_S_S_S_S_S_'
GPGPU-Sim uArch: Shader 22 bind to kernel 1 '_Z11ExecuteLSTMPdS_S_S_S_S_S_S_S_S_S_S_S_S_S_'
GPGPU-Sim uArch: Shader 11 bind to kernel 1 '_Z11ExecuteLSTMPdS_S_S_S_S_S_S_S_S_S_S_S_S_S_'
GPGPU-Sim uArch: Shader 12 bind to kernel 1 '_Z11ExecuteLSTMPdS_S_S_S_S_S_S_S_S_S_S_S_S_S_'
GPGPU-Sim uArch: Shader 8 bind to kernel 1 '_Z11ExecuteLSTMPdS_S_S_S_S_S_S_S_S_S_S_S_S_S_'
GPGPU-Sim uArch: Shader 15 bind to kernel 1 '_Z11ExecuteLSTMPdS_S_S_S_S_S_S_S_S_S_S_S_S_S_'
GPGPU-Sim uArch: Shader 24 bind to kernel 1 '_Z11ExecuteLSTMPdS_S_S_S_S_S_S_S_S_S_S_S_S_S_'
GPGPU-Sim uArch: Shader 23 bind to kernel 1 '_Z11ExecuteLSTMPdS_S_S_S_S_S_S_S_S_S_S_S_S_S_'
GPGPU-Sim uArch: Shader 2 bind to kernel 1 '_Z11ExecuteLSTMPdS_S_S_S_S_S_S_S_S_S_S_S_S_S_'
GPGPU-Sim uArch: Shader 7 bind to kernel 1 '_Z11ExecuteLSTMPdS_S_S_S_S_S_S_S_S_S_S_S_S_S_'
GPGPU-Sim uArch: Shader 13 bind to kernel 1 '_Z11ExecuteLSTMPdS_S_S_S_S_S_S_S_S_S_S_S_S_S_'
GPGPU-Sim uArch: Shader 9 bind to kernel 1 '_Z11ExecuteLSTMPdS_S_S_S_S_S_S_S_S_S_S_S_S_S_'
GPGPU-Sim uArch: Shader 16 bind to kernel 1 '_Z11ExecuteLSTMPdS_S_S_S_S_S_S_S_S_S_S_S_S_S_'
GPGPU-Sim uArch: Shader 27 bind to kernel 1 '_Z11ExecuteLSTMPdS_S_S_S_S_S_S_S_S_S_S_S_S_S_'
GPGPU-Sim uArch: Shader 4 bind to kernel 1 '_Z11ExecuteLSTMPdS_S_S_S_S_S_S_S_S_S_S_S_S_S_'
Simulation cycle for kernel 0 is = 210000
Simulation cycle for kernel 0 is = 215000
Simulation cycle for kernel 0 is = 220000
Simulation cycle for kernel 0 is = 225000
Simulation cycle for kernel 0 is = 230000
Simulation cycle for kernel 0 is = 235000
Simulation cycle for kernel 0 is = 240000
Simulation cycle for kernel 0 is = 245000
Simulation cycle for kernel 0 is = 250000
Simulation cycle for kernel 0 is = 255000
Simulation cycle for kernel 0 is = 260000
Simulation cycle for kernel 0 is = 265000
Simulation cycle for kernel 0 is = 270000
Simulation cycle for kernel 0 is = 275000
Simulation cycle for kernel 0 is = 280000
Simulation cycle for kernel 0 is = 285000
Simulation cycle for kernel 0 is = 290000
Simulation cycle for kernel 0 is = 295000
Simulation cycle for kernel 0 is = 300000
Simulation cycle for kernel 0 is = 305000
Simulation cycle for kernel 0 is = 310000
Simulation cycle for kernel 0 is = 315000
Simulation cycle for kernel 0 is = 320000
Simulation cycle for kernel 0 is = 325000
Simulation cycle for kernel 0 is = 330000
Simulation cycle for kernel 0 is = 335000
Simulation cycle for kernel 0 is = 340000
Simulation cycle for kernel 0 is = 345000
Simulation cycle for kernel 0 is = 350000
GPGPU-Sim uArch: Shader 5 bind to kernel 1 '_Z11ExecuteLSTMPdS_S_S_S_S_S_S_S_S_S_S_S_S_S_'
GPGPU-Sim uArch: Shader 1 bind to kernel 1 '_Z11ExecuteLSTMPdS_S_S_S_S_S_S_S_S_S_S_S_S_S_'
GPGPU-Sim uArch: Shader 29 bind to kernel 1 '_Z11ExecuteLSTMPdS_S_S_S_S_S_S_S_S_S_S_S_S_S_'
GPGPU-Sim uArch: Shader 14 bind to kernel 1 '_Z11ExecuteLSTMPdS_S_S_S_S_S_S_S_S_S_S_S_S_S_'
Simulation cycle for kernel 0 is = 355000
Simulation cycle for kernel 0 is = 360000
Simulation cycle for kernel 0 is = 365000
Simulation cycle for kernel 0 is = 370000
Simulation cycle for kernel 0 is = 375000
Simulation cycle for kernel 0 is = 380000
Simulation cycle for kernel 0 is = 385000
Simulation cycle for kernel 0 is = 390000
Simulation cycle for kernel 0 is = 395000
Simulation cycle for kernel 0 is = 400000
Simulation cycle for kernel 0 is = 405000
Simulation cycle for kernel 0 is = 410000
Simulation cycle for kernel 0 is = 415000
Simulation cycle for kernel 0 is = 420000
Simulation cycle for kernel 0 is = 425000
Simulation cycle for kernel 0 is = 430000
Simulation cycle for kernel 0 is = 435000
Simulation cycle for kernel 0 is = 440000
Simulation cycle for kernel 0 is = 445000
Simulation cycle for kernel 0 is = 450000
Simulation cycle for kernel 0 is = 455000
Simulation cycle for kernel 0 is = 460000
Simulation cycle for kernel 0 is = 465000
Simulation cycle for kernel 0 is = 470000
Simulation cycle for kernel 0 is = 475000
Simulation cycle for kernel 0 is = 480000
Simulation cycle for kernel 0 is = 485000
Simulation cycle for kernel 0 is = 490000
Simulation cycle for kernel 0 is = 495000
Simulation cycle for kernel 0 is = 500000
Destroy streams for kernel 1: size 0
kernel_name = _Z11ExecuteLSTMPdS_S_S_S_S_S_S_S_S_S_S_S_S_S_ 
kernel_launch_uid = 1 
gpu_sim_cycle = 503127
gpu_sim_insn = 45144192
gpu_ipc =      89.7272
gpu_tot_sim_cycle = 503127
gpu_tot_sim_insn = 45144192
gpu_tot_ipc =      89.7272
gpu_tot_issued_cta = 64
gpu_occupancy = 46.9256% 
gpu_tot_occupancy = 46.9256% 
max_total_param_size = 0
gpu_stall_dramfull = 168534
gpu_stall_icnt2sh    = 0
partiton_level_parallism =       1.6039
partiton_level_parallism_total  =       1.6039
partiton_level_parallism_util =       2.6522
partiton_level_parallism_util_total  =       2.6522
L2_BW  =      70.0587 GB/Sec
L2_BW_total  =      70.0587 GB/Sec
gpu_total_sim_rate=18708

========= Core cache stats =========
L1I_cache:
	L1I_total_cache_accesses = 0
	L1I_total_cache_misses = 0
	L1I_total_cache_pending_hits = 0
	L1I_total_cache_reservation_fails = 0
L1D_cache:
	L1D_cache_core[0]: Access = 106660, Miss = 25212, Miss_rate = 0.236, Pending_hits = 47631, Reservation_fails = 1214
	L1D_cache_core[1]: Access = 160112, Miss = 36691, Miss_rate = 0.229, Pending_hits = 72602, Reservation_fails = 1781
	L1D_cache_core[2]: Access = 106660, Miss = 25327, Miss_rate = 0.237, Pending_hits = 51368, Reservation_fails = 1038
	L1D_cache_core[3]: Access = 106660, Miss = 25121, Miss_rate = 0.236, Pending_hits = 49171, Reservation_fails = 1287
	L1D_cache_core[4]: Access = 106660, Miss = 25428, Miss_rate = 0.238, Pending_hits = 50112, Reservation_fails = 1161
	L1D_cache_core[5]: Access = 160112, Miss = 36870, Miss_rate = 0.230, Pending_hits = 72120, Reservation_fails = 1927
	L1D_cache_core[6]: Access = 106660, Miss = 25148, Miss_rate = 0.236, Pending_hits = 45075, Reservation_fails = 1313
	L1D_cache_core[7]: Access = 106660, Miss = 25434, Miss_rate = 0.238, Pending_hits = 45128, Reservation_fails = 1193
	L1D_cache_core[8]: Access = 106660, Miss = 25244, Miss_rate = 0.237, Pending_hits = 50243, Reservation_fails = 1167
	L1D_cache_core[9]: Access = 106660, Miss = 25333, Miss_rate = 0.238, Pending_hits = 49030, Reservation_fails = 1094
	L1D_cache_core[10]: Access = 106660, Miss = 25216, Miss_rate = 0.236, Pending_hits = 52387, Reservation_fails = 1049
	L1D_cache_core[11]: Access = 106660, Miss = 25637, Miss_rate = 0.240, Pending_hits = 46397, Reservation_fails = 1079
	L1D_cache_core[12]: Access = 106545, Miss = 25405, Miss_rate = 0.238, Pending_hits = 48956, Reservation_fails = 981
	L1D_cache_core[13]: Access = 106660, Miss = 25309, Miss_rate = 0.237, Pending_hits = 49012, Reservation_fails = 1159
	L1D_cache_core[14]: Access = 160112, Miss = 36764, Miss_rate = 0.230, Pending_hits = 71178, Reservation_fails = 1661
	L1D_cache_core[15]: Access = 107058, Miss = 25431, Miss_rate = 0.238, Pending_hits = 50367, Reservation_fails = 1162
	L1D_cache_core[16]: Access = 107058, Miss = 25427, Miss_rate = 0.238, Pending_hits = 47226, Reservation_fails = 1036
	L1D_cache_core[17]: Access = 107058, Miss = 25402, Miss_rate = 0.237, Pending_hits = 42400, Reservation_fails = 1009
	L1D_cache_core[18]: Access = 106660, Miss = 25206, Miss_rate = 0.236, Pending_hits = 42851, Reservation_fails = 1107
	L1D_cache_core[19]: Access = 106660, Miss = 25308, Miss_rate = 0.237, Pending_hits = 52288, Reservation_fails = 1100
	L1D_cache_core[20]: Access = 106660, Miss = 25578, Miss_rate = 0.240, Pending_hits = 46562, Reservation_fails = 1159
	L1D_cache_core[21]: Access = 106660, Miss = 25589, Miss_rate = 0.240, Pending_hits = 46517, Reservation_fails = 980
	L1D_cache_core[22]: Access = 107058, Miss = 25431, Miss_rate = 0.238, Pending_hits = 44653, Reservation_fails = 1215
	L1D_cache_core[23]: Access = 106660, Miss = 25226, Miss_rate = 0.237, Pending_hits = 44253, Reservation_fails = 1107
	L1D_cache_core[24]: Access = 107058, Miss = 25551, Miss_rate = 0.239, Pending_hits = 46820, Reservation_fails = 1029
	L1D_cache_core[25]: Access = 107058, Miss = 25530, Miss_rate = 0.238, Pending_hits = 45335, Reservation_fails = 1084
	L1D_cache_core[26]: Access = 106660, Miss = 25328, Miss_rate = 0.237, Pending_hits = 48955, Reservation_fails = 1190
	L1D_cache_core[27]: Access = 106943, Miss = 25343, Miss_rate = 0.237, Pending_hits = 49925, Reservation_fails = 992
	L1D_cache_core[28]: Access = 106943, Miss = 25521, Miss_rate = 0.239, Pending_hits = 48529, Reservation_fails = 1095
	L1D_cache_core[29]: Access = 160395, Miss = 36891, Miss_rate = 0.230, Pending_hits = 59782, Reservation_fails = 1673
	L1D_total_cache_accesses = 3416730
	L1D_total_cache_misses = 806901
	L1D_total_cache_miss_rate = 0.2362
	L1D_total_cache_pending_hits = 1516873
	L1D_total_cache_reservation_fails = 36042
	L1D_cache_data_port_util = 0.098
	L1D_cache_fill_port_util = 0.072
L1C_cache:
	L1C_total_cache_accesses = 0
	L1C_total_cache_misses = 0
	L1C_total_cache_pending_hits = 0
	L1C_total_cache_reservation_fails = 0
L1T_cache:
	L1T_total_cache_accesses = 0
	L1T_total_cache_misses = 0
	L1T_total_cache_pending_hits = 0
	L1T_total_cache_reservation_fails = 0

Total_core_cache_stats:
	Total_core_cache_stats_breakdown[GLOBAL_ACC_R][HIT] = 1092888
	Total_core_cache_stats_breakdown[GLOBAL_ACC_R][HIT_RESERVED] = 1516873
	Total_core_cache_stats_breakdown[GLOBAL_ACC_R][MISS] = 209700
	Total_core_cache_stats_breakdown[GLOBAL_ACC_R][RESERVATION_FAIL] = 36042
	Total_core_cache_stats_breakdown[GLOBAL_ACC_R][SECTOR_MISS] = 597171
	Total_core_cache_stats_breakdown[GLOBAL_ACC_R][MSHR_HIT] = 1516873
	Total_core_cache_stats_breakdown[LOCAL_ACC_R][HIT] = 0
	Total_core_cache_stats_breakdown[LOCAL_ACC_R][HIT_RESERVED] = 0
	Total_core_cache_stats_breakdown[LOCAL_ACC_R][MISS] = 0
	Total_core_cache_stats_breakdown[LOCAL_ACC_R][RESERVATION_FAIL] = 0
	Total_core_cache_stats_breakdown[LOCAL_ACC_R][SECTOR_MISS] = 0
	Total_core_cache_stats_breakdown[LOCAL_ACC_R][MSHR_HIT] = 0
	Total_core_cache_stats_breakdown[CONST_ACC_R][HIT] = 0
	Total_core_cache_stats_breakdown[CONST_ACC_R][HIT_RESERVED] = 0
	Total_core_cache_stats_breakdown[CONST_ACC_R][MISS] = 0
	Total_core_cache_stats_breakdown[CONST_ACC_R][RESERVATION_FAIL] = 0
	Total_core_cache_stats_breakdown[CONST_ACC_R][SECTOR_MISS] = 0
	Total_core_cache_stats_breakdown[CONST_ACC_R][MSHR_HIT] = 0
	Total_core_cache_stats_breakdown[TEXTURE_ACC_R][HIT] = 0
	Total_core_cache_stats_breakdown[TEXTURE_ACC_R][HIT_RESERVED] = 0
	Total_core_cache_stats_breakdown[TEXTURE_ACC_R][MISS] = 0
	Total_core_cache_stats_breakdown[TEXTURE_ACC_R][RESERVATION_FAIL] = 0
	Total_core_cache_stats_breakdown[TEXTURE_ACC_R][SECTOR_MISS] = 0
	Total_core_cache_stats_breakdown[TEXTURE_ACC_R][MSHR_HIT] = 0
	Total_core_cache_stats_breakdown[GLOBAL_ACC_W][HIT] = 68
	Total_core_cache_stats_breakdown[GLOBAL_ACC_W][HIT_RESERVED] = 0
	Total_core_cache_stats_breakdown[GLOBAL_ACC_W][MISS] = 30
	Total_core_cache_stats_breakdown[GLOBAL_ACC_W][RESERVATION_FAIL] = 0
	Total_core_cache_stats_breakdown[GLOBAL_ACC_W][SECTOR_MISS] = 0
	Total_core_cache_stats_breakdown[GLOBAL_ACC_W][MSHR_HIT] = 0
	Total_core_cache_stats_breakdown[LOCAL_ACC_W][HIT] = 0
	Total_core_cache_stats_breakdown[LOCAL_ACC_W][HIT_RESERVED] = 0
	Total_core_cache_stats_breakdown[LOCAL_ACC_W][MISS] = 0
	Total_core_cache_stats_breakdown[LOCAL_ACC_W][RESERVATION_FAIL] = 0
	Total_core_cache_stats_breakdown[LOCAL_ACC_W][SECTOR_MISS] = 0
	Total_core_cache_stats_breakdown[LOCAL_ACC_W][MSHR_HIT] = 0
	Total_core_cache_stats_breakdown[L1_WRBK_ACC][HIT] = 0
	Total_core_cache_stats_breakdown[L1_WRBK_ACC][HIT_RESERVED] = 0
	Total_core_cache_stats_breakdown[L1_WRBK_ACC][MISS] = 0
	Total_core_cache_stats_breakdown[L1_WRBK_ACC][RESERVATION_FAIL] = 0
	Total_core_cache_stats_breakdown[L1_WRBK_ACC][SECTOR_MISS] = 0
	Total_core_cache_stats_breakdown[L1_WRBK_ACC][MSHR_HIT] = 0
	Total_core_cache_stats_breakdown[L2_WRBK_ACC][HIT] = 0
	Total_core_cache_stats_breakdown[L2_WRBK_ACC][HIT_RESERVED] = 0
	Total_core_cache_stats_breakdown[L2_WRBK_ACC][MISS] = 0
	Total_core_cache_stats_breakdown[L2_WRBK_ACC][RESERVATION_FAIL] = 0
	Total_core_cache_stats_breakdown[L2_WRBK_ACC][SECTOR_MISS] = 0
	Total_core_cache_stats_breakdown[L2_WRBK_ACC][MSHR_HIT] = 0
	Total_core_cache_stats_breakdown[INST_ACC_R][HIT] = 0
	Total_core_cache_stats_breakdown[INST_ACC_R][HIT_RESERVED] = 0
	Total_core_cache_stats_breakdown[INST_ACC_R][MISS] = 0
	Total_core_cache_stats_breakdown[INST_ACC_R][RESERVATION_FAIL] = 0
	Total_core_cache_stats_breakdown[INST_ACC_R][SECTOR_MISS] = 0
	Total_core_cache_stats_breakdown[INST_ACC_R][MSHR_HIT] = 0
	Total_core_cache_stats_breakdown[L1_WR_ALLOC_R][HIT] = 0
	Total_core_cache_stats_breakdown[L1_WR_ALLOC_R][HIT_RESERVED] = 0
	Total_core_cache_stats_breakdown[L1_WR_ALLOC_R][MISS] = 0
	Total_core_cache_stats_breakdown[L1_WR_ALLOC_R][RESERVATION_FAIL] = 0
	Total_core_cache_stats_breakdown[L1_WR_ALLOC_R][SECTOR_MISS] = 0
	Total_core_cache_stats_breakdown[L1_WR_ALLOC_R][MSHR_HIT] = 0
	Total_core_cache_stats_breakdown[L2_WR_ALLOC_R][HIT] = 0
	Total_core_cache_stats_breakdown[L2_WR_ALLOC_R][HIT_RESERVED] = 0
	Total_core_cache_stats_breakdown[L2_WR_ALLOC_R][MISS] = 0
	Total_core_cache_stats_breakdown[L2_WR_ALLOC_R][RESERVATION_FAIL] = 0
	Total_core_cache_stats_breakdown[L2_WR_ALLOC_R][SECTOR_MISS] = 0
	Total_core_cache_stats_breakdown[L2_WR_ALLOC_R][MSHR_HIT] = 0
	Total_core_cache_stats_breakdown[GLOBAL_ACC_R][TOTAL_ACCESS] = 3416632
	Total_core_cache_stats_breakdown[GLOBAL_ACC_W][TOTAL_ACCESS] = 98

Total_core_cache_fail_stats:
	Total_core_cache_fail_stats_breakdown[GLOBAL_ACC_R][MISS_QUEUE_FULL] = 36042
ctas_completed 64, Shader 0 warp_id issue ditsribution:
warp_id:
0, 1, 2, 3, 4, 5, 6, 7, 8, 9, 10, 11, 12, 13, 14, 15, 
distro:
4514, 2774, 2774, 2774, 2774, 2774, 2774, 2774, 2774, 2774, 2774, 2774, 2774, 2774, 2774, 2774, 
gpgpu_n_tot_thrd_icount = 47230976
gpgpu_n_tot_w_icount = 1475968
gpgpu_n_stall_shd_mem = 433829
gpgpu_n_mem_read_local = 0
gpgpu_n_mem_write_local = 0
gpgpu_n_mem_read_global = 806871
gpgpu_n_mem_write_global = 98
gpgpu_n_mem_texture = 0
gpgpu_n_mem_const = 0
gpgpu_n_load_insn  = 13644416
gpgpu_n_store_insn = 128
gpgpu_n_shmem_insn = 3355136
gpgpu_n_sstarr_insn = 0
gpgpu_n_tex_insn = 0
gpgpu_n_const_mem_insn = 0
gpgpu_n_param_mem_insn = 590208
gpgpu_n_shmem_bkconflict = 0
gpgpu_n_cache_bkconflict = 0
gpgpu_n_intrawarp_mshr_merge = 0
gpgpu_n_cmem_portconflict = 0
gpgpu_stall_shd_mem[c_mem][resource_stall] = 0
gpgpu_stall_shd_mem[s_mem][bk_conf] = 2048
gpgpu_stall_shd_mem[gl_mem][resource_stall] = 3054
gpgpu_stall_shd_mem[gl_mem][coal_stall] = 428727
gpgpu_stall_shd_mem[gl_mem][data_port_stall] = 0
gpu_reg_bank_conflict_stalls = 0
Warp Occupancy Distribution:
Stall:3244021	W0_Idle:4543996	W0_Scoreboard:35306259	W1:55680	W2:0	W3:0	W4:0	W5:0	W6:0	W7:0	W8:0	W9:0	W10:0	W11:0	W12:0	W13:0	W14:0	W15:0	W16:0	W17:0	W18:0	W19:0	W20:0	W21:0	W22:0	W23:0	W24:0	W25:0	W26:0	W27:0	W28:0	W29:0	W30:0	W31:179	W32:1420109
single_issue_nums: WS0:410752	WS1:355072	WS2:355072	WS3:355072	
dual_issue_nums: WS0:0	WS1:0	WS2:0	WS3:0	
traffic_breakdown_coretomem[GLOBAL_ACC_R] = 6454968 {8:806871,}
traffic_breakdown_coretomem[GLOBAL_ACC_W] = 3920 {40:98,}
traffic_breakdown_memtocore[GLOBAL_ACC_R] = 32274840 {40:806871,}
traffic_breakdown_memtocore[GLOBAL_ACC_W] = 784 {8:98,}
maxmflatency = 2334 
max_icnt2mem_latency = 1657 
maxmrqlatency = 27 
max_icnt2sh_latency = 127 
averagemflatency = 303 
avg_icnt2mem_latency = 54 
avg_mrq_latency = 1 
avg_icnt2sh_latency = 2 
mrq_lat_table:12163 	145 	59 	384 	707 	0 	0 	0 	0 	0 	0 	0 	0 	0 	0 	0 	0 	0 	0 	0 	0 	0 	0 	0 	0 	0 	0 	0 	0 	0 	0 	0 	
dq_lat_table:0 	0 	0 	0 	0 	0 	0 	0 	0 	0 	0 	0 	0 	0 	0 	0 	0 	0 	0 	0 	0 	0 	0 	0 	0 	0 	0 	0 	0 	0 	0 	0 	
mf_lat_table:0 	0 	0 	0 	0 	0 	0 	468088 	312373 	20114 	5955 	439 	0 	0 	0 	0 	0 	0 	0 	0 	0 	0 	0 	0 	0 	0 	0 	0 	0 	0 	0 	0 	
icnt2mem_lat_table:0 	0 	0 	0 	0 	740820 	40612 	10129 	6492 	7031 	1885 	0 	0 	0 	0 	0 	0 	0 	0 	0 	0 	0 	0 	0 	
icnt2sh_lat_table:0 	772867 	18983 	6726 	4026 	3132 	1235 	0 	0 	0 	0 	0 	0 	0 	0 	0 	0 	0 	0 	0 	0 	0 	0 	0 	
mf_lat_pw_table:0 	0 	0 	0 	0 	0 	0 	312 	171 	2 	2 	0 	0 	0 	0 	0 	0 	0 	0 	0 	0 	0 	0 	0 	0 	0 	0 	0 	0 	0 	0 	0 	
maximum concurrent accesses to same row:
dram[0]:        28        27        40        40         8         8        16        16         4         4        20        20         4         4        20        20 
dram[1]:        30        28        44        44         8         8        20        20         4         4        20        20         4         4        20        20 
dram[2]:        30        28        44        45         8         8        20        20         4         4        20        20         4         4        20        20 
dram[3]:        26        25        44        45         8         8        20        20         8         8        20        20         4         4        20        20 
dram[4]:        24        24        44        44         4         4        20        20         8         8        20        20         8         8        20        20 
dram[5]:        24        24        44        45         4         4        20        20         8         8        20        20         8         8        24        24 
dram[6]:        23        24        44        45         4         4        20        20         8         8        20        20         8         8        24        24 
dram[7]:        25        24        44        44         8         8        20        20         4         4        20        20         8         8        24        24 
dram[8]:        25        24        44        44         8         8        20        20         8         8        20        20         4         4        24        24 
dram[9]:        24        24        44        44         8         8        20        20         8         8        24        24         4         4        24        24 
dram[10]:        25        24        44        44         7         8        20        20         8         8        24        24         4         4        24        24 
dram[11]:        25        24        44        44         4         4        20        20         8         8        24        24         4         4        24        24 
maximum service time to same row:
dram[0]:     44626     70887    153519    153538     44510     44503    126096    126553     39780     39893    122221    122403     41625     42513    122230    122312 
dram[1]:     45771     71382    154011    154418     45412     46265    127019    128504     41360     41926    123795    122807     41420     41270    122647    122709 
dram[2]:     45700     70008    154781    155335     47245     47478    128233    128193     42495     42499    122798    123281     41542     41483    123101    123313 
dram[3]:     65082     64994    155323    155319     47543     47488    127985    128634     41428     41451    123578    123882     42715     44047    124084    124327 
dram[4]:     47186     64955    155463    156117     46428     47102    128425    128562     43842     44697    124244    124487     43346     43175    124371    124419 
dram[5]:     47295     65217    156257    157646     48432     48686    129567    129519     44610     44549    124439    124672     44093     44188    124620    125009 
dram[6]:     48982     64682    156978    156974     48917     48758    129315    129800     44545     44546    125082    125463     44098     45593    126166    126516 
dram[7]:     65884     65249    157068    157711     48364     48408    130223    130535     44638     46015    125804    126064     46158     46143    126184    126198 
dram[8]:     65255     65039    157834    157910     50093     50222    131062    131035     46265     46145    126033    126100     45186     45309    126183    126624 
dram[9]:     49412     64281    158547    158539     49441     49147    130718    131146     45907     45906    126509    126935     45746     46755    127300    128676 
dram[10]:     49612     65404    158542    159014     49472     49502    131629    131847     45935     47286    127287    127902     47221     47397    127426    127426 
dram[11]:     50274     65034    159299    159605     51440     51788    132768    132822     47603     47748    127882    127881     47410     47343    128000    128584 
average row accesses per activate:
dram[0]:  5.826087  5.666667  7.000000  7.181818 25.333334 25.333334 20.000000 20.000000 24.000000 24.000000 24.000000 24.000000 34.000000 34.000000 22.000000 22.000000 
dram[1]:  5.913043  5.192307  7.166667  7.545455 25.333334 25.333334 22.000000 22.000000 24.000000 24.000000 24.000000 24.000000 34.000000 34.000000 22.000000 22.000000 
dram[2]:  5.826087  5.583333  7.818182  7.636364 25.333334 25.333334 21.500000 20.000000 24.000000 24.000000 23.500000 22.000000 34.000000 34.000000 22.000000 22.000000 
dram[3]:  5.375000  5.416667  7.818182  7.545455 25.333334 25.333334 20.000000 20.000000 25.333334 25.333334 22.000000 22.000000 34.000000 34.000000 22.000000 22.000000 
dram[4]:  5.478261  4.769231  7.636364  9.111111 24.000000 24.000000 20.000000 20.000000 25.333334 25.333334 22.000000 22.000000 36.000000 36.000000 22.000000 22.000000 
dram[5]:  5.391304  5.125000  7.818182  9.333333 24.000000 24.000000 20.000000 20.000000 25.333334 25.333334 22.000000 22.000000 36.000000 36.000000 24.000000 24.000000 
dram[6]:  5.434783  5.166667  7.727273  7.900000 24.000000 24.000000 20.000000 20.000000 25.333334 25.333334 22.000000 22.000000 36.000000 36.000000 24.000000 24.000000 
dram[7]:  5.333333  5.208333  8.000000  8.555555 25.333334 25.333334 20.000000 20.000000 24.000000 24.000000 22.000000 22.000000 36.000000 36.000000 24.000000 24.000000 
dram[8]:  5.250000  5.125000  8.100000  8.777778 25.333334 25.333334 20.000000 20.000000 25.333334 25.333334 22.000000 22.000000 34.000000 34.000000 24.000000 24.000000 
dram[9]:  5.478261  5.208333  8.100000  8.666667 25.333334 25.333334 20.000000 20.000000 25.333334 25.333334 24.000000 24.000000 34.000000 34.000000 24.000000 24.000000 
dram[10]:  5.565217  5.291667  8.000000  8.444445 19.000000 25.333334 20.000000 20.000000 25.333334 25.333334 24.000000 24.000000 34.000000 34.000000 23.500000 22.000000 
dram[11]:  5.200000  5.333333  8.000000  8.666667 24.000000 24.000000 20.000000 20.000000 25.333334 25.333334 24.000000 24.000000 34.000000 34.000000 22.000000 22.000000 
average row locality = 13458/1156 = 11.641869
number of total memory accesses made:
dram[0]:         0         0         0         0         0         0         0         0         0         0         0         0         0         0         0         0 
dram[1]:         0         0         0         0         0         0         0         0         0         0         0         0         0         0         0         0 
dram[2]:         0         0         0         0         0         0         0         0         0         0         0         0         0         0         0         0 
dram[3]:         0         0         0         0         0         0         0         0         0         0         0         0         0         0         0         0 
dram[4]:         0         0         0         0         0         0         0         0         0         0         0         0         0         0         0         0 
dram[5]:         0         0         0         0         0         0         0         0         0         0         0         0         0         0         0         0 
dram[6]:         0         0         0         0         0         0         0         0         0         0         0         0         0         0         0         0 
dram[7]:         0         0         0         0         0         0         0         0         0         0         0         0         0         0         0         0 
dram[8]:         0         0         0         0         0         0         0         0         0         0         0         0         0         0         0         0 
dram[9]:         0         0         0         0         0         0         0         0         0         0         0         0         0         0         0         0 
dram[10]:         0         0         0         0         0         0         0         0         0         0         0         0         0         0         0         0 
dram[11]:         0         0         0         0         0         0         0         0         0         0         0         0         0         0         0         0 
total accesses: 0
min_bank_accesses = 0!
min_chip_accesses = 0!
number of total read accesses:
dram[0]:       134       136        84        79        76        76        40        40        72        72        48        48        68        68        44        44 
dram[1]:       136       135        86        83        76        76        44        44        72        72        48        48        68        68        44        44 
dram[2]:       134       134        86        84        76        76        43        40        72        72        47        44        68        68        44        44 
dram[3]:       129       130        86        83        76        76        40        40        76        76        44        44        68        68        44        44 
dram[4]:       126       124        84        82        72        72        40        40        76        76        44        44        72        72        44        44 
dram[5]:       124       123        86        84        72        72        40        40        76        76        44        44        72        72        48        48 
dram[6]:       125       124        85        79        72        72        40        40        76        76        44        44        72        72        48        48 
[...]
Issued_on_Two_Bus_Simul_Util = 0.000000 
issued_two_Eff = 0.000000 
queue_avg = 0.003254 


dram_util_bins: 0 0 0 0 0 0 0 0 0 0
dram_eff_bins: 0 0 0 0 0 0 0 0 0 0
mrqq: max=12 avg=0.00325441
Memory Partition 6: 
Cache L2_bank_012:
MSHR contents

Cache L2_bank_013:
MSHR contents

In Dram Latency Queue (total = 0): 
DRAM[6]: 16 bks, busW=2 BL=16 CL=24, tRRD=12 tCCD=4, tRCD=24 tRAS=55 tRP=24 tRC=78
n_cmd=1290251 n_nop=1288954 n_act=98 n_pre=82 n_ref_event=0 n_req=1117 n_rd=1117 n_rd_L2_A=0 n_write=0 n_wr_bk=0 bw_util=0.003463
n_activity=23181 dram_eff=0.1927
bk0: 125a 1289061i bk1: 124a 1288985i bk2: 85a 1289558i bk3: 79a 1289579i bk4: 72a 1289982i bk5: 72a 1290009i bk6: 40a 1290106i bk7: 40a 1290112i bk8: 76a 1289995i bk9: 76a 1290045i bk10: 44a 1290147i bk11: 44a 1290132i bk12: 72a 1290093i bk13: 72a 1290107i bk14: 48a 1290159i bk15: 48a 1290182i 

------------------------------------------------------------------------

Row_Buffer_Locality = 0.914056
Row_Buffer_Locality_read = 0.914056
Row_Buffer_Locality_write = -nan
Bank_Level_Parallism = 1.172021
Bank_Level_Parallism_Col = 1.131148
Bank_Level_Parallism_Ready = 1.012534
write_to_read_ratio_blp_rw_average = 0.000000
GrpLevelPara = 1.118180 

BW Util details:
bwutil = 0.003463 
total_CMD = 1290251 
util_bw = 4468 
Wasted_Col = 2340 
Wasted_Row = 1601 
Idle = 1281842 

BW Util Bottlenecks: 
RCDc_limit = 2180 
RCDWRc_limit = 0 
WTRc_limit = 0 
RTWc_limit = 0 
CCDLc_limit = 441 
rwq = 0 
CCDLc_limit_alone = 441 
WTRc_limit_alone = 0 
RTWc_limit_alone = 0 

Commands details: 
total_CMD = 1290251 
n_nop = 1288954 
Read = 1117 
Write = 0 
L2_Alloc = 0 
L2_WB = 0 
n_act = 98 
n_pre = 82 
n_ref = 0 
n_req = 1117 
total_req = 1117 

Dual Bus Interface Util: 
issued_total_row = 180 
issued_total_col = 1117 
Row_Bus_Util =  0.000140 
CoL_Bus_Util = 0.000866 
Either_Row_CoL_Bus_Util = 0.001005 
Issued_on_Two_Bus_Simul_Util = 0.000000 
issued_two_Eff = 0.000000 
queue_avg = 0.002896 


dram_util_bins: 0 0 0 0 0 0 0 0 0 0
dram_eff_bins: 0 0 0 0 0 0 0 0 0 0
mrqq: max=6 avg=0.00289556
Memory Partition 7: 
Cache L2_bank_014:
MSHR contents

Cache L2_bank_015:
MSHR contents

In Dram Latency Queue (total = 0): 
DRAM[7]: 16 bks, busW=2 BL=16 CL=24, tRRD=12 tCCD=4, tRCD=24 tRAS=55 tRP=24 tRC=78
n_cmd=1290251 n_nop=1288959 n_act=97 n_pre=81 n_ref_event=0 n_req=1114 n_rd=1114 n_rd_L2_A=0 n_write=0 n_wr_bk=0 bw_util=0.003454
n_activity=23334 dram_eff=0.191
bk0: 128a 1289028i bk1: 125a 1288989i bk2: 80a 1289613i bk3: 77a 1289663i bk4: 76a 1289978i bk5: 76a 1290003i bk6: 40a 1290079i bk7: 40a 1290105i bk8: 72a 1289984i bk9: 72a 1290007i bk10: 44a 1290124i bk11: 44a 1290142i bk12: 72a 1290123i bk13: 72a 1290117i bk14: 48a 1290125i bk15: 48a 1290158i 

------------------------------------------------------------------------

Row_Buffer_Locality = 0.914722
Row_Buffer_Locality_read = 0.914722
Row_Buffer_Locality_write = -nan
Bank_Level_Parallism = 1.145262
Bank_Level_Parallism_Col = 1.124790
Bank_Level_Parallism_Ready = 1.010772
write_to_read_ratio_blp_rw_average = 0.000000
GrpLevelPara = 1.112551 

BW Util details:
bwutil = 0.003454 
total_CMD = 1290251 
util_bw = 4456 
Wasted_Col = 2397 
Wasted_Row = 1673 
Idle = 1281725 

BW Util Bottlenecks: 
RCDc_limit = 2156 
RCDWRc_limit = 0 
WTRc_limit = 0 
RTWc_limit = 0 
CCDLc_limit = 451 
rwq = 0 
CCDLc_limit_alone = 451 
WTRc_limit_alone = 0 
RTWc_limit_alone = 0 

Commands details: 
total_CMD = 1290251 
n_nop = 1288959 
Read = 1114 
Write = 0 
L2_Alloc = 0 
L2_WB = 0 
n_act = 97 
n_pre = 81 
n_ref = 0 
n_req = 1114 
total_req = 1114 

Dual Bus Interface Util: 
issued_total_row = 178 
issued_total_col = 1114 
Row_Bus_Util =  0.000138 
CoL_Bus_Util = 0.000863 
Either_Row_CoL_Bus_Util = 0.001001 
Issued_on_Two_Bus_Simul_Util = 0.000000 
issued_two_Eff = 0.000000 
queue_avg = 0.002924 


dram_util_bins: 0 0 0 0 0 0 0 0 0 0
dram_eff_bins: 0 0 0 0 0 0 0 0 0 0
mrqq: max=8 avg=0.00292424
Memory Partition 8: 
Cache L2_bank_016:
MSHR contents

Cache L2_bank_017:
MSHR contents

In Dram Latency Queue (total = 0): 
DRAM[8]: 16 bks, busW=2 BL=16 CL=24, tRRD=12 tCCD=4, tRCD=24 tRAS=55 tRP=24 tRC=78
n_cmd=1290251 n_nop=1288960 n_act=97 n_pre=81 n_ref_event=0 n_req=1113 n_rd=1113 n_rd_L2_A=0 n_write=0 n_wr_bk=0 bw_util=0.00345
n_activity=23560 dram_eff=0.189
bk0: 126a 1288993i bk1: 123a 1288981i bk2: 81a 1289600i bk3: 79a 1289675i bk4: 76a 1290013i bk5: 76a 1290032i bk6: 40a 1290117i bk7: 40a 1290084i bk8: 76a 1290050i bk9: 76a 1290078i bk10: 44a 1290129i bk11: 44a 1290141i bk12: 68a 1290132i bk13: 68a 1290146i bk14: 48a 1290131i bk15: 48a 1290163i 

------------------------------------------------------------------------

Row_Buffer_Locality = 0.914645
Row_Buffer_Locality_read = 0.914645
Row_Buffer_Locality_write = -nan
Bank_Level_Parallism = 1.100619
Bank_Level_Parallism_Col = 1.072610
Bank_Level_Parallism_Ready = 1.007188
write_to_read_ratio_blp_rw_average = 0.000000
GrpLevelPara = 1.070932 

BW Util details:
bwutil = 0.003450 
total_CMD = 1290251 
util_bw = 4452 
Wasted_Col = 2481 
Wasted_Row = 1704 
Idle = 1281614 

BW Util Bottlenecks: 
RCDc_limit = 2203 
RCDWRc_limit = 0 
WTRc_limit = 0 
RTWc_limit = 0 
CCDLc_limit = 462 
rwq = 0 
CCDLc_limit_alone = 462 
WTRc_limit_alone = 0 
RTWc_limit_alone = 0 

Commands details: 
total_CMD = 1290251 
n_nop = 1288960 
Read = 1113 
Write = 0 
L2_Alloc = 0 
L2_WB = 0 
n_act = 97 
n_pre = 81 
n_ref = 0 
n_req = 1113 
total_req = 1113 

Dual Bus Interface Util: 
issued_total_row = 178 
issued_total_col = 1113 
Row_Bus_Util =  0.000138 
CoL_Bus_Util = 0.000863 
Either_Row_CoL_Bus_Util = 0.001001 
Issued_on_Two_Bus_Simul_Util = 0.000000 
issued_two_Eff = 0.000000 
queue_avg = 0.002718 


dram_util_bins: 0 0 0 0 0 0 0 0 0 0
dram_eff_bins: 0 0 0 0 0 0 0 0 0 0
mrqq: max=6 avg=0.00271808
Memory Partition 9: 
Cache L2_bank_018:
MSHR contents

Cache L2_bank_019:
MSHR contents

In Dram Latency Queue (total = 0): 
DRAM[9]: 16 bks, busW=2 BL=16 CL=24, tRRD=12 tCCD=4, tRCD=24 tRAS=55 tRP=24 tRC=78
n_cmd=1290251 n_nop=1288953 n_act=96 n_pre=80 n_ref_event=0 n_req=1122 n_rd=1122 n_rd_L2_A=0 n_write=0 n_wr_bk=0 bw_util=0.003478
n_activity=23636 dram_eff=0.1899
bk0: 126a 1289043i bk1: 125a 1288990i bk2: 81a 1289635i bk3: 78a 1289675i bk4: 76a 1289995i bk5: 76a 1290020i bk6: 40a 1290095i bk7: 40a 1290111i bk8: 76a 1290028i bk9: 76a 1290041i bk10: 48a 1290137i bk11: 48a 1290120i bk12: 68a 1290136i bk13: 68a 1290141i bk14: 48a 1290143i bk15: 48a 1290141i 

------------------------------------------------------------------------

Row_Buffer_Locality = 0.916221
Row_Buffer_Locality_read = 0.916221
Row_Buffer_Locality_write = -nan
Bank_Level_Parallism = 1.122852
Bank_Level_Parallism_Col = 1.100897
Bank_Level_Parallism_Ready = 1.008014
write_to_read_ratio_blp_rw_average = 0.000000
GrpLevelPara = 1.090953 

BW Util details:
bwutil = 0.003478 
total_CMD = 1290251 
util_bw = 4488 
Wasted_Col = 2389 
Wasted_Row = 1661 
Idle = 1281713 

BW Util Bottlenecks: 
RCDc_limit = 2117 
RCDWRc_limit = 0 
WTRc_limit = 0 
RTWc_limit = 0 
CCDLc_limit = 470 
rwq = 0 
CCDLc_limit_alone = 470 
WTRc_limit_alone = 0 
RTWc_limit_alone = 0 

Commands details: 
total_CMD = 1290251 
n_nop = 1288953 
Read = 1122 
Write = 0 
L2_Alloc = 0 
L2_WB = 0 
n_act = 96 
n_pre = 80 
n_ref = 0 
n_req = 1122 
total_req = 1122 

Dual Bus Interface Util: 
issued_total_row = 176 
issued_total_col = 1122 
Row_Bus_Util =  0.000136 
CoL_Bus_Util = 0.000870 
Either_Row_CoL_Bus_Util = 0.001006 
Issued_on_Two_Bus_Simul_Util = 0.000000 
issued_two_Eff = 0.000000 
queue_avg = 0.003004 


dram_util_bins: 0 0 0 0 0 0 0 0 0 0
dram_eff_bins: 0 0 0 0 0 0 0 0 0 0
mrqq: max=8 avg=0.00300407
Memory Partition 10: 
Cache L2_bank_020:
MSHR contents

Cache L2_bank_021:
MSHR contents

In Dram Latency Queue (total = 0): 
DRAM[10]: 16 bks, busW=2 BL=16 CL=24, tRRD=12 tCCD=4, tRCD=24 tRAS=55 tRP=24 tRC=78
n_cmd=1290251 n_nop=1288955 n_act=97 n_pre=81 n_ref_event=0 n_req=1118 n_rd=1118 n_rd_L2_A=0 n_write=0 n_wr_bk=0 bw_util=0.003466
n_activity=23619 dram_eff=0.1893
bk0: 128a 1289040i bk1: 127a 1288965i bk2: 80a 1289630i bk3: 76a 1289663i bk4: 76a 1289893i bk5: 76a 1290000i bk6: 40a 1290102i bk7: 40a 1290101i bk8: 76a 1290057i bk9: 76a 1290047i bk10: 48a 1290107i bk11: 48a 1290136i bk12: 68a 1290123i bk13: 68a 1290135i bk14: 47a 1290121i bk15: 44a 1290159i 

------------------------------------------------------------------------

Row_Buffer_Locality = 0.915027
Row_Buffer_Locality_read = 0.915027
Row_Buffer_Locality_write = -nan
Bank_Level_Parallism = 1.108653
Bank_Level_Parallism_Col = 1.091784
Bank_Level_Parallism_Ready = 1.008937
write_to_read_ratio_blp_rw_average = 0.000000
GrpLevelPara = 1.090610 

BW Util details:
bwutil = 0.003466 
total_CMD = 1290251 
util_bw = 4472 
Wasted_Col = 2472 
Wasted_Row = 1749 
Idle = 1281558 

BW Util Bottlenecks: 
RCDc_limit = 2194 
RCDWRc_limit = 0 
WTRc_limit = 0 
RTWc_limit = 0 
CCDLc_limit = 462 
rwq = 0 
CCDLc_limit_alone = 462 
WTRc_limit_alone = 0 
RTWc_limit_alone = 0 

Commands details: 
total_CMD = 1290251 
n_nop = 1288955 
Read = 1118 
Write = 0 
L2_Alloc = 0 
L2_WB = 0 
n_act = 97 
n_pre = 81 
n_ref = 0 
n_req = 1118 
total_req = 1118 

Dual Bus Interface Util: 
issued_total_row = 178 
issued_total_col = 1118 
Row_Bus_Util =  0.000138 
CoL_Bus_Util = 0.000866 
Either_Row_CoL_Bus_Util = 0.001004 
Issued_on_Two_Bus_Simul_Util = 0.000000 
issued_two_Eff = 0.000000 
queue_avg = 0.003216 


dram_util_bins: 0 0 0 0 0 0 0 0 0 0
dram_eff_bins: 0 0 0 0 0 0 0 0 0 0
mrqq: max=6 avg=0.00321643
Memory Partition 11: 
Cache L2_bank_022:
MSHR contents

Cache L2_bank_023:
MSHR contents

In Dram Latency Queue (total = 0): 
DRAM[11]: 16 bks, busW=2 BL=16 CL=24, tRRD=12 tCCD=4, tRCD=24 tRAS=55 tRP=24 tRC=78
n_cmd=1290251 n_nop=1288959 n_act=98 n_pre=82 n_ref_event=0 n_req=1112 n_rd=1112 n_rd_L2_A=0 n_write=0 n_wr_bk=0 bw_util=0.003447
n_activity=23265 dram_eff=0.1912
bk0: 130a 1288929i bk1: 128a 1288981i bk2: 80a 1289579i bk3: 78a 1289692i bk4: 72a 1289967i bk5: 72a 1290002i bk6: 40a 1290108i bk7: 40a 1290113i bk8: 76a 1290042i bk9: 76a 1290050i bk10: 48a 1290081i bk11: 48a 1290102i bk12: 68a 1290131i bk13: 68a 1290127i bk14: 44a 1290151i bk15: 44a 1290135i 

------------------------------------------------------------------------

Row_Buffer_Locality = 0.913669
Row_Buffer_Locality_read = 0.913669
Row_Buffer_Locality_write = -nan
Bank_Level_Parallism = 1.124610
Bank_Level_Parallism_Col = 1.101711
Bank_Level_Parallism_Ready = 1.011680
write_to_read_ratio_blp_rw_average = 0.000000
GrpLevelPara = 1.087649 

BW Util details:
bwutil = 0.003447 
total_CMD = 1290251 
util_bw = 4448 
Wasted_Col = 2490 
Wasted_Row = 1724 
Idle = 1281589 

BW Util Bottlenecks: 
RCDc_limit = 2189 
RCDWRc_limit = 0 
WTRc_limit = 0 
RTWc_limit = 0 
CCDLc_limit = 505 
rwq = 0 
CCDLc_limit_alone = 505 
WTRc_limit_alone = 0 
RTWc_limit_alone = 0 

Commands details: 
total_CMD = 1290251 
n_nop = 1288959 
Read = 1112 
Write = 0 
L2_Alloc = 0 
L2_WB = 0 
n_act = 98 
n_pre = 82 
n_ref = 0 
n_req = 1112 
total_req = 1112 

Dual Bus Interface Util: 
issued_total_row = 180 
issued_total_col = 1112 
Row_Bus_Util =  0.000140 
CoL_Bus_Util = 0.000862 
Either_Row_CoL_Bus_Util = 0.001001 
Issued_on_Two_Bus_Simul_Util = 0.000000 
issued_two_Eff = 0.000000 
queue_avg = 0.003252 


dram_util_bins: 0 0 0 0 0 0 0 0 0 0
dram_eff_bins: 0 0 0 0 0 0 0 0 0 0
mrqq: max=7 avg=0.00325208

========= L2 cache stats =========
L2_cache_bank[0]: Access = 33572, Miss = 566, Miss_rate = 0.017, Pending_hits = 1487, Reservation_fails = 29957
L2_cache_bank[1]: Access = 33617, Miss = 563, Miss_rate = 0.017, Pending_hits = 1480, Reservation_fails = 30917
L2_cache_bank[2]: Access = 34117, Miss = 574, Miss_rate = 0.017, Pending_hits = 1489, Reservation_fails = 31866
L2_cache_bank[3]: Access = 34165, Miss = 570, Miss_rate = 0.017, Pending_hits = 1525, Reservation_fails = 31828
L2_cache_bank[4]: Access = 34035, Miss = 570, Miss_rate = 0.017, Pending_hits = 1507, Reservation_fails = 32081
L2_cache_bank[5]: Access = 33690, Miss = 562, Miss_rate = 0.017, Pending_hits = 1490, Reservation_fails = 31564
L2_cache_bank[6]: Access = 33765, Miss = 563, Miss_rate = 0.017, Pending_hits = 1471, Reservation_fails = 30080
L2_cache_bank[7]: Access = 33795, Miss = 561, Miss_rate = 0.017, Pending_hits = 1449, Reservation_fails = 28541
L2_cache_bank[8]: Access = 33818, Miss = 558, Miss_rate = 0.017, Pending_hits = 1502, Reservation_fails = 30132
L2_cache_bank[9]: Access = 33831, Miss = 554, Miss_rate = 0.016, Pending_hits = 1483, Reservation_fails = 30229
L2_cache_bank[10]: Access = 34070, Miss = 562, Miss_rate = 0.016, Pending_hits = 1476, Reservation_fails = 29996
L2_cache_bank[11]: Access = 34026, Miss = 559, Miss_rate = 0.016, Pending_hits = 1462, Reservation_fails = 30080
L2_cache_bank[12]: Access = 34026, Miss = 562, Miss_rate = 0.017, Pending_hits = 1491, Reservation_fails = 30120
L2_cache_bank[13]: Access = 33813, Miss = 555, Miss_rate = 0.016, Pending_hits = 1474, Reservation_fails = 29807
L2_cache_bank[14]: Access = 33227, Miss = 560, Miss_rate = 0.017, Pending_hits = 1447, Reservation_fails = 29990
L2_cache_bank[15]: Access = 33134, Miss = 554, Miss_rate = 0.017, Pending_hits = 1438, Reservation_fails = 29718
L2_cache_bank[16]: Access = 33200, Miss = 559, Miss_rate = 0.017, Pending_hits = 1484, Reservation_fails = 30831
L2_cache_bank[17]: Access = 33237, Miss = 554, Miss_rate = 0.017, Pending_hits = 1502, Reservation_fails = 30939
L2_cache_bank[18]: Access = 33505, Miss = 564, Miss_rate = 0.017, Pending_hits = 1459, Reservation_fails = 30405
L2_cache_bank[19]: Access = 33435, Miss = 559, Miss_rate = 0.017, Pending_hits = 1486, Reservation_fails = 32141
L2_cache_bank[20]: Access = 33372, Miss = 563, Miss_rate = 0.017, Pending_hits = 1476, Reservation_fails = 31243
L2_cache_bank[21]: Access = 33188, Miss = 555, Miss_rate = 0.017, Pending_hits = 1466, Reservation_fails = 30589
L2_cache_bank[22]: Access = 33154, Miss = 558, Miss_rate = 0.017, Pending_hits = 1446, Reservation_fails = 31109
L2_cache_bank[23]: Access = 33177, Miss = 554, Miss_rate = 0.017, Pending_hits = 1441, Reservation_fails = 30031
L2_total_cache_accesses = 806969
L2_total_cache_misses = 13459
L2_total_cache_miss_rate = 0.0167
L2_total_cache_pending_hits = 35431
L2_total_cache_reservation_fails = 734194
L2_total_cache_breakdown:
	L2_cache_stats_breakdown[GLOBAL_ACC_R][HIT] = 757982
	L2_cache_stats_breakdown[GLOBAL_ACC_R][HIT_RESERVED] = 35431
	L2_cache_stats_breakdown[GLOBAL_ACC_R][MISS] = 3471
	L2_cache_stats_breakdown[GLOBAL_ACC_R][RESERVATION_FAIL] = 734194
	L2_cache_stats_breakdown[GLOBAL_ACC_R][SECTOR_MISS] = 9987
	L2_cache_stats_breakdown[GLOBAL_ACC_R][MSHR_HIT] = 35431
	L2_cache_stats_breakdown[LOCAL_ACC_R][HIT] = 0
	L2_cache_stats_breakdown[LOCAL_ACC_R][HIT_RESERVED] = 0
	L2_cache_stats_breakdown[LOCAL_ACC_R][MISS] = 0
	L2_cache_stats_breakdown[LOCAL_ACC_R][RESERVATION_FAIL] = 0
	L2_cache_stats_breakdown[LOCAL_ACC_R][SECTOR_MISS] = 0
	L2_cache_stats_breakdown[LOCAL_ACC_R][MSHR_HIT] = 0
	L2_cache_stats_breakdown[CONST_ACC_R][HIT] = 0
	L2_cache_stats_breakdown[CONST_ACC_R][HIT_RESERVED] = 0
	L2_cache_stats_breakdown[CONST_ACC_R][MISS] = 0
	L2_cache_stats_breakdown[CONST_ACC_R][RESERVATION_FAIL] = 0
	L2_cache_stats_breakdown[CONST_ACC_R][SECTOR_MISS] = 0
	L2_cache_stats_breakdown[CONST_ACC_R][MSHR_HIT] = 0
	L2_cache_stats_breakdown[TEXTURE_ACC_R][HIT] = 0
	L2_cache_stats_breakdown[TEXTURE_ACC_R][HIT_RESERVED] = 0
	L2_cache_stats_breakdown[TEXTURE_ACC_R][MISS] = 0
	L2_cache_stats_breakdown[TEXTURE_ACC_R][RESERVATION_FAIL] = 0
	L2_cache_stats_breakdown[TEXTURE_ACC_R][SECTOR_MISS] = 0
	L2_cache_stats_breakdown[TEXTURE_ACC_R][MSHR_HIT] = 0
	L2_cache_stats_breakdown[GLOBAL_ACC_W][HIT] = 97
	L2_cache_stats_breakdown[GLOBAL_ACC_W][HIT_RESERVED] = 0
	L2_cache_stats_breakdown[GLOBAL_ACC_W][MISS] = 1
	L2_cache_stats_breakdown[GLOBAL_ACC_W][RESERVATION_FAIL] = 0
	L2_cache_stats_breakdown[GLOBAL_ACC_W][SECTOR_MISS] = 0
	L2_cache_stats_breakdown[GLOBAL_ACC_W][MSHR_HIT] = 0
	L2_cache_stats_breakdown[LOCAL_ACC_W][HIT] = 0
	L2_cache_stats_breakdown[LOCAL_ACC_W][HIT_RESERVED] = 0
	L2_cache_stats_breakdown[LOCAL_ACC_W][MISS] = 0
	L2_cache_stats_breakdown[LOCAL_ACC_W][RESERVATION_FAIL] = 0
	L2_cache_stats_breakdown[LOCAL_ACC_W][SECTOR_MISS] = 0
	L2_cache_stats_breakdown[LOCAL_ACC_W][MSHR_HIT] = 0
	L2_cache_stats_breakdown[L1_WRBK_ACC][HIT] = 0
	L2_cache_stats_breakdown[L1_WRBK_ACC][HIT_RESERVED] = 0
	L2_cache_stats_breakdown[L1_WRBK_ACC][MISS] = 0
	L2_cache_stats_breakdown[L1_WRBK_ACC][RESERVATION_FAIL] = 0
	L2_cache_stats_breakdown[L1_WRBK_ACC][SECTOR_MISS] = 0
	L2_cache_stats_breakdown[L1_WRBK_ACC][MSHR_HIT] = 0
	L2_cache_stats_breakdown[L2_WRBK_ACC][HIT] = 0
	L2_cache_stats_breakdown[L2_WRBK_ACC][HIT_RESERVED] = 0
	L2_cache_stats_breakdown[L2_WRBK_ACC][MISS] = 0
	L2_cache_stats_breakdown[L2_WRBK_ACC][RESERVATION_FAIL] = 0
	L2_cache_stats_breakdown[L2_WRBK_ACC][SECTOR_MISS] = 0
	L2_cache_stats_breakdown[L2_WRBK_ACC][MSHR_HIT] = 0
	L2_cache_stats_breakdown[INST_ACC_R][HIT] = 0
	L2_cache_stats_breakdown[INST_ACC_R][HIT_RESERVED] = 0
	L2_cache_stats_breakdown[INST_ACC_R][MISS] = 0
	L2_cache_stats_breakdown[INST_ACC_R][RESERVATION_FAIL] = 0
	L2_cache_stats_breakdown[INST_ACC_R][SECTOR_MISS] = 0
	L2_cache_stats_breakdown[INST_ACC_R][MSHR_HIT] = 0
	L2_cache_stats_breakdown[L1_WR_ALLOC_R][HIT] = 0
	L2_cache_stats_breakdown[L1_WR_ALLOC_R][HIT_RESERVED] = 0
	L2_cache_stats_breakdown[L1_WR_ALLOC_R][MISS] = 0
	L2_cache_stats_breakdown[L1_WR_ALLOC_R][RESERVATION_FAIL] = 0
	L2_cache_stats_breakdown[L1_WR_ALLOC_R][SECTOR_MISS] = 0
	L2_cache_stats_breakdown[L1_WR_ALLOC_R][MSHR_HIT] = 0
	L2_cache_stats_breakdown[L2_WR_ALLOC_R][HIT] = 0
	L2_cache_stats_breakdown[L2_WR_ALLOC_R][HIT_RESERVED] = 0
	L2_cache_stats_breakdown[L2_WR_ALLOC_R][MISS] = 0
	L2_cache_stats_breakdown[L2_WR_ALLOC_R][RESERVATION_FAIL] = 0
	L2_cache_stats_breakdown[L2_WR_ALLOC_R][SECTOR_MISS] = 0
	L2_cache_stats_breakdown[L2_WR_ALLOC_R][MSHR_HIT] = 0
	L2_cache_stats_breakdown[GLOBAL_ACC_R][TOTAL_ACCESS] = 806871
	L2_cache_stats_breakdown[GLOBAL_ACC_W][TOTAL_ACCESS] = 98
L2_total_cache_reservation_fail_breakdown:
	L2_cache_stats_fail_breakdown[GLOBAL_ACC_R][MSHR_MERGE_ENRTY_FAIL] = 734194
L2_cache_data_port_util = 0.063
L2_cache_fill_port_util = 0.001

icnt_total_pkts_mem_to_simt=806969
icnt_total_pkts_simt_to_mem=806969
LD_mem_lat_dist  0 0 0 0 0 0 0 0 0 0 0 0 0 0 0 0 0 0 0 0 0 0 0 0 0 0 0
ST_mem_lat_dist  0 0 0 0 0 0 0 0 0 0 0 0 0 0 0 0 0 0 0 0 0 0 0 0 0 0 0
----------------------------Interconnect-DETAILS--------------------------------
Req_Network_injected_packets_num = 806969
Req_Network_cycles = 503127
Req_Network_injected_packets_per_cycle =       1.6039 
Req_Network_conflicts_per_cycle =       1.4382
Req_Network_conflicts_per_cycle_util =       2.3870
Req_Bank_Level_Parallism =       2.6621
Req_Network_in_buffer_full_per_cycle =       0.0000
Req_Network_in_buffer_avg_util =       0.6906
Req_Network_out_buffer_full_per_cycle =       0.0000
Req_Network_out_buffer_avg_util =       0.3002

Reply_Network_injected_packets_num = 806969
Reply_Network_cycles = 503127
Reply_Network_injected_packets_per_cycle =        1.6039
Reply_Network_conflicts_per_cycle =        0.1188
Reply_Network_conflicts_per_cycle_util =       0.1918
Reply_Bank_Level_Parallism =       2.5905
Reply_Network_in_buffer_full_per_cycle =       0.0000
Reply_Network_in_buffer_avg_util =       0.0379
Reply_Network_out_buffer_full_per_cycle =       0.0000
Reply_Network_out_buffer_avg_util =       0.0535
----------------------------END-of-Interconnect-DETAILS-------------------------


gpgpu_simulation_time = 0 days, 0 hrs, 40 min, 13 sec (2413 sec)
gpgpu_simulation_rate = 18708 (inst/sec)
gpgpu_simulation_rate = 208 (cycle/sec)
gpgpu_silicon_slowdown = 6562500x
GPGPU-Sim: synchronize waiting for inactive GPU simulation
GPGPU-Sim API: Stream Manager State
GPGPU-Sim: detected inactive GPU simulation thread
The result for i=0 is 0.943991 and i=1 is 0.908974
GPGPU-Sim: *** exit detected ***
