

        *** GPGPU-Sim Simulator Version 4.2.0  [build gpgpu-sim_git-commit-5e9d31b8132651796656877ecb58fde27177ba7a_modified_315.0] ***


GPGPU-Sim PTX: simulation mode 0 (can change with PTX_SIM_MODE_FUNC environment variable:
               1=functional simulation only, 0=detailed performance simulator)
GPGPU-Sim PTX: overriding embedded ptx with ptx file (PTX_SIM_USE_PTX_FILE is set)
GPGPU-Sim: Configuration options:

-save_embedded_ptx                      0 # saves ptx files embedded in binary as <n>.ptx
-keep                                   0 # keep intermediate files created by GPGPU-Sim when interfacing with external programs
-gpgpu_ptx_save_converted_ptxplus                    0 # Saved converted ptxplus to a file
-gpgpu_occupancy_sm_number                   75 # The SM number to pass to ptxas when getting register usage for computing GPU occupancy. This parameter is required in the config.
-ptx_opcode_latency_int           4,4,4,4,21 # Opcode latencies for integers <ADD,MAX,MUL,MAD,DIV,SHFL>Default 1,1,19,25,145,32
-ptx_opcode_latency_fp           4,4,4,4,39 # Opcode latencies for single precision floating points <ADD,MAX,MUL,MAD,DIV>Default 1,1,1,1,30
-ptx_opcode_latency_dp      64,64,64,64,330 # Opcode latencies for double precision floating points <ADD,MAX,MUL,MAD,DIV>Default 8,8,8,8,335
-ptx_opcode_latency_sfu                   21 # Opcode latencies for SFU instructionsDefault 8
-ptx_opcode_latency_tesnor                   64 # Opcode latencies for Tensor instructionsDefault 64
-ptx_opcode_initiation_int            2,2,2,2,2 # Opcode initiation intervals for integers <ADD,MAX,MUL,MAD,DIV,SHFL>Default 1,1,4,4,32,4
-ptx_opcode_initiation_fp            2,2,2,2,4 # Opcode initiation intervals for single precision floating points <ADD,MAX,MUL,MAD,DIV>Default 1,1,1,1,5
-ptx_opcode_initiation_dp      64,64,64,64,130 # Opcode initiation intervals for double precision floating points <ADD,MAX,MUL,MAD,DIV>Default 8,8,8,8,130
-ptx_opcode_initiation_sfu                    8 # Opcode initiation intervals for sfu instructionsDefault 8
-ptx_opcode_initiation_tensor                   64 # Opcode initiation intervals for tensor instructionsDefault 64
-cdp_latency         7200,8000,100,12000,1600 # CDP API latency <cudaStreamCreateWithFlags, cudaGetParameterBufferV2_init_perWarp, cudaGetParameterBufferV2_perKernel, cudaLaunchDeviceV2_init_perWarp, cudaLaunchDevicV2_perKernel>Default 7200,8000,100,12000,1600
-network_mode                           2 # Interconnection network mode
-inter_config_file                   mesh # Interconnection network config file
-icnt_in_buffer_limit                  512 # in_buffer_limit
-icnt_out_buffer_limit                  512 # out_buffer_limit
-icnt_subnets                           2 # subnets
-icnt_arbiter_algo                      1 # arbiter_algo
-icnt_verbose                           0 # inct_verbose
-icnt_grant_cycles                      1 # grant_cycles
-gpgpu_ptx_use_cuobjdump                    1 # Use cuobjdump to extract ptx and sass from binaries
-gpgpu_experimental_lib_support                    0 # Try to extract code from cuda libraries [Broken because of unknown cudaGetExportTable]
-checkpoint_option                      0 #  checkpointing flag (0 = no checkpoint)
-checkpoint_kernel                      1 #  checkpointing during execution of which kernel (1- 1st kernel)
-checkpoint_CTA                         0 #  checkpointing after # of CTA (< less than total CTA)
-resume_option                          0 #  resume flag (0 = no resume)
-resume_kernel                          0 #  Resume from which kernel (1= 1st kernel)
-resume_CTA                             0 #  resume from which CTA 
-checkpoint_CTA_t                       0 #  resume from which CTA 
-checkpoint_insn_Y                      0 #  resume from which CTA 
-gpgpu_ptx_convert_to_ptxplus                    0 # Convert SASS (native ISA) to ptxplus and run ptxplus
-gpgpu_ptx_force_max_capability                   75 # Force maximum compute capability
-gpgpu_ptx_inst_debug_to_file                    0 # Dump executed instructions' debug information to file
-gpgpu_ptx_inst_debug_file       inst_debug.txt # Executed instructions' debug output file
-gpgpu_ptx_inst_debug_thread_uid                    1 # Thread UID for executed instructions' debug output
-gpgpu_simd_model                       1 # 1 = post-dominator
-gpgpu_shader_core_pipeline              1024:32 # shader core pipeline config, i.e., {<nthread>:<warpsize>}
-gpgpu_tex_cache:l1  N:4:128:256,L:R:m:N:L,T:512:8,128:2 # per-shader L1 texture cache  (READ-ONLY) config  {<nsets>:<bsize>:<assoc>,<rep>:<wr>:<alloc>:<wr_alloc>,<mshr>:<N>:<merge>,<mq>:<rf>}
-gpgpu_const_cache:l1 N:128:64:8,L:R:f:N:L,S:2:64,4 # per-shader L1 constant memory cache  (READ-ONLY) config  {<nsets>:<bsize>:<assoc>,<rep>:<wr>:<alloc>:<wr_alloc>,<mshr>:<N>:<merge>,<mq>} 
-gpgpu_cache:il1     N:64:128:16,L:R:f:N:L,S:2:48,4 # shader L1 instruction cache config  {<nsets>:<bsize>:<assoc>,<rep>:<wr>:<alloc>:<wr_alloc>,<mshr>:<N>:<merge>,<mq>} 
-gpgpu_cache:dl1     S:4:128:64,L:T:m:L:L,A:256:32,16:0,32 # per-shader L1 data cache config  {<nsets>:<bsize>:<assoc>,<rep>:<wr>:<alloc>:<wr_alloc>,<mshr>:<N>:<merge>,<mq> | none}
-gpgpu_l1_cache_write_ratio                   25 # L1D write ratio
-gpgpu_l1_banks                         4 # The number of L1 cache banks
-gpgpu_l1_banks_byte_interleaving                   32 # l1 banks byte interleaving granularity
-gpgpu_l1_banks_hashing_function                    0 # l1 banks hashing function
-gpgpu_l1_latency                      32 # L1 Hit Latency
-gpgpu_smem_latency                    30 # smem Latency
-gpgpu_cache:dl1PrefL1                 none # per-shader L1 data cache config  {<nsets>:<bsize>:<assoc>,<rep>:<wr>:<alloc>:<wr_alloc>,<mshr>:<N>:<merge>,<mq> | none}
-gpgpu_cache:dl1PrefShared                 none # per-shader L1 data cache config  {<nsets>:<bsize>:<assoc>,<rep>:<wr>:<alloc>:<wr_alloc>,<mshr>:<N>:<merge>,<mq> | none}
-gpgpu_gmem_skip_L1D                    0 # global memory access skip L1D cache (implements -Xptxas -dlcm=cg, default=no skip)
-gpgpu_perfect_mem                      0 # enable perfect memory mode (no cache miss)
-n_regfile_gating_group                    4 # group of lanes that should be read/written together)
-gpgpu_clock_gated_reg_file                    0 # enable clock gated reg file for power calculations
-gpgpu_clock_gated_lanes                    0 # enable clock gated lanes for power calculations
-gpgpu_shader_registers                65536 # Number of registers per shader core. Limits number of concurrent CTAs. (default 8192)
-gpgpu_registers_per_block                65536 # Maximum number of registers per CTA. (default 8192)
-gpgpu_ignore_resources_limitation                    0 # gpgpu_ignore_resources_limitation (default 0)
-gpgpu_shader_cta                      16 # Maximum number of concurrent CTAs in shader (default 32)
-gpgpu_num_cta_barriers                   16 # Maximum number of named barriers per CTA (default 16)
-gpgpu_n_clusters                      30 # number of processing clusters
-gpgpu_n_cores_per_cluster                    1 # number of simd cores per cluster
-gpgpu_n_cluster_ejection_buffer_size                   32 # number of packets in ejection buffer
-gpgpu_n_ldst_response_buffer_size                    2 # number of response packets in ld/st unit ejection buffer
-gpgpu_shmem_per_block                49152 # Size of shared memory per thread block or CTA (default 48kB)
-gpgpu_shmem_size                   65536 # Size of shared memory per shader core (default 16kB)
-gpgpu_shmem_option                 32,64 # Option list of shared memory sizes
-gpgpu_unified_l1d_size                   96 # Size of unified data cache(L1D + shared memory) in KB
-gpgpu_adaptive_cache_config                    1 # adaptive_cache_config
-gpgpu_shmem_sizeDefault                65536 # Size of shared memory per shader core (default 16kB)
-gpgpu_shmem_size_PrefL1                16384 # Size of shared memory per shader core (default 16kB)
-gpgpu_shmem_size_PrefShared                16384 # Size of shared memory per shader core (default 16kB)
-gpgpu_shmem_num_banks                   32 # Number of banks in the shared memory in each shader core (default 16)
-gpgpu_shmem_limited_broadcast                    0 # Limit shared memory to do one broadcast per cycle (default on)
-gpgpu_shmem_warp_parts                    1 # Number of portions a warp is divided into for shared memory bank conflict check 
-gpgpu_mem_unit_ports                    1 # The number of memory transactions allowed per core cycle
-gpgpu_shmem_warp_parts                    1 # Number of portions a warp is divided into for shared memory bank conflict check 
-gpgpu_warpdistro_shader                   -1 # Specify which shader core to collect the warp size distribution from
-gpgpu_warp_issue_shader                    0 # Specify which shader core to collect the warp issue distribution from
-gpgpu_local_mem_map                    1 # Mapping from local memory space address to simulated GPU physical address space (default = enabled)
-gpgpu_num_reg_banks                    8 # Number of register banks (default = 8)
-gpgpu_reg_bank_use_warp_id                    0 # Use warp ID in mapping registers to banks (default = off)
-gpgpu_sub_core_model                    1 # Sub Core Volta/Pascal model (default = off)
-gpgpu_enable_specialized_operand_collector                    0 # enable_specialized_operand_collector
-gpgpu_operand_collector_num_units_sp                    4 # number of collector units (default = 4)
-gpgpu_operand_collector_num_units_dp                    0 # number of collector units (default = 0)
-gpgpu_operand_collector_num_units_sfu                    4 # number of collector units (default = 4)
-gpgpu_operand_collector_num_units_int                    0 # number of collector units (default = 0)
-gpgpu_operand_collector_num_units_tensor_core                    4 # number of collector units (default = 4)
-gpgpu_operand_collector_num_units_mem                    2 # number of collector units (default = 2)
-gpgpu_operand_collector_num_units_gen                    8 # number of collector units (default = 0)
-gpgpu_operand_collector_num_in_ports_sp                    1 # number of collector unit in ports (default = 1)
-gpgpu_operand_collector_num_in_ports_dp                    0 # number of collector unit in ports (default = 0)
-gpgpu_operand_collector_num_in_ports_sfu                    1 # number of collector unit in ports (default = 1)
-gpgpu_operand_collector_num_in_ports_int                    0 # number of collector unit in ports (default = 0)
-gpgpu_operand_collector_num_in_ports_tensor_core                    1 # number of collector unit in ports (default = 1)
-gpgpu_operand_collector_num_in_ports_mem                    1 # number of collector unit in ports (default = 1)
-gpgpu_operand_collector_num_in_ports_gen                    8 # number of collector unit in ports (default = 0)
-gpgpu_operand_collector_num_out_ports_sp                    1 # number of collector unit in ports (default = 1)
-gpgpu_operand_collector_num_out_ports_dp                    0 # number of collector unit in ports (default = 0)
-gpgpu_operand_collector_num_out_ports_sfu                    1 # number of collector unit in ports (default = 1)
-gpgpu_operand_collector_num_out_ports_int                    0 # number of collector unit in ports (default = 0)
-gpgpu_operand_collector_num_out_ports_tensor_core                    1 # number of collector unit in ports (default = 1)
-gpgpu_operand_collector_num_out_ports_mem                    1 # number of collector unit in ports (default = 1)
-gpgpu_operand_collector_num_out_ports_gen                    8 # number of collector unit in ports (default = 0)
-gpgpu_coalesce_arch                   75 # Coalescing arch (GT200 = 13, Fermi = 20)
-gpgpu_num_sched_per_core                    4 # Number of warp schedulers per core
-gpgpu_max_insn_issue_per_warp                    1 # Max number of instructions that can be issued per warp in one cycle by scheduler (either 1 or 2)
-gpgpu_dual_issue_diff_exec_units                    1 # should dual issue use two different execution unit resources (Default = 1)
-gpgpu_simt_core_sim_order                    1 # Select the simulation order of cores in a cluster (0=Fix, 1=Round-Robin)
-gpgpu_pipeline_widths 4,4,4,4,4,4,4,4,4,4,8,4,4 # Pipeline widths ID_OC_SP,ID_OC_DP,ID_OC_INT,ID_OC_SFU,ID_OC_MEM,OC_EX_SP,OC_EX_DP,OC_EX_INT,OC_EX_SFU,OC_EX_MEM,EX_WB,ID_OC_TENSOR_CORE,OC_EX_TENSOR_CORE
-gpgpu_tensor_core_avail                    1 # Tensor Core Available (default=0)
-gpgpu_num_sp_units                     4 # Number of SP units (default=1)
-gpgpu_num_dp_units                     4 # Number of DP units (default=0)
-gpgpu_num_int_units                    4 # Number of INT units (default=0)
-gpgpu_num_sfu_units                    4 # Number of SF units (default=1)
-gpgpu_num_tensor_core_units                    4 # Number of tensor_core units (default=1)
-gpgpu_num_mem_units                    1 # Number if ldst units (default=1) WARNING: not hooked up to anything
-gpgpu_scheduler                      lrr # Scheduler configuration: < lrr | gto | two_level_active > If two_level_active:<num_active_warps>:<inner_prioritization>:<outer_prioritization>For complete list of prioritization values see shader.h enum scheduler_prioritization_typeDefault: gto
-gpgpu_concurrent_kernel_sm                    0 # Support concurrent kernels on a SM (default = disabled)
-gpgpu_perfect_inst_const_cache                    1 # perfect inst and const cache mode, so all inst and const hits in the cache(default = disabled)
-gpgpu_inst_fetch_throughput                    4 # the number of fetched intruction per warp each cycle
-gpgpu_reg_file_port_throughput                    2 # the number ports of the register file
-specialized_unit_1         0,4,4,4,4,BRA # specialized unit config {<enabled>,<num_units>:<latency>:<initiation>,<ID_OC_SPEC>:<OC_EX_SPEC>,<NAME>}
-specialized_unit_2         0,4,4,4,4,BRA # specialized unit config {<enabled>,<num_units>:<latency>:<initiation>,<ID_OC_SPEC>:<OC_EX_SPEC>,<NAME>}
-specialized_unit_3         0,4,4,4,4,BRA # specialized unit config {<enabled>,<num_units>:<latency>:<initiation>,<ID_OC_SPEC>:<OC_EX_SPEC>,<NAME>}
-specialized_unit_4         0,4,4,4,4,BRA # specialized unit config {<enabled>,<num_units>:<latency>:<initiation>,<ID_OC_SPEC>:<OC_EX_SPEC>,<NAME>}
-specialized_unit_5         0,4,4,4,4,BRA # specialized unit config {<enabled>,<num_units>:<latency>:<initiation>,<ID_OC_SPEC>:<OC_EX_SPEC>,<NAME>}
-specialized_unit_6         0,4,4,4,4,BRA # specialized unit config {<enabled>,<num_units>:<latency>:<initiation>,<ID_OC_SPEC>:<OC_EX_SPEC>,<NAME>}
-specialized_unit_7         0,4,4,4,4,BRA # specialized unit config {<enabled>,<num_units>:<latency>:<initiation>,<ID_OC_SPEC>:<OC_EX_SPEC>,<NAME>}
-specialized_unit_8         0,4,4,4,4,BRA # specialized unit config {<enabled>,<num_units>:<latency>:<initiation>,<ID_OC_SPEC>:<OC_EX_SPEC>,<NAME>}
-gpgpu_perf_sim_memcpy                    1 # Fill the L2 cache on memcpy
-gpgpu_simple_dram_model                    0 # simple_dram_model with fixed latency and BW
-gpgpu_dram_scheduler                    1 # 0 = fifo, 1 = FR-FCFS (defaul)
-gpgpu_dram_partition_queues          64:64:64:64 # i2$:$2d:d2$:$2i
-l2_ideal                               0 # Use a ideal L2 cache that always hit
-gpgpu_cache:dl2     S:64:128:16,L:B:m:L:P,A:192:4,32:0,32 # unified banked L2 data cache config  {<nsets>:<bsize>:<assoc>,<rep>:<wr>:<alloc>:<wr_alloc>,<mshr>:<N>:<merge>,<mq>}
-gpgpu_cache:dl2_texture_only                    0 # L2 cache used for texture only
-gpgpu_n_mem                           12 # number of memory modules (e.g. memory controllers) in gpu
-gpgpu_n_sub_partition_per_mchannel                    2 # number of memory subpartition in each memory module
-gpgpu_n_mem_per_ctrlr                    1 # number of memory chips per memory controller
-gpgpu_memlatency_stat                   14 # track and display latency statistics 0x2 enables MC, 0x4 enables queue logs
-gpgpu_frfcfs_dram_sched_queue_size                   64 # 0 = unlimited (default); # entries per chip
-gpgpu_dram_return_queue_size                  192 # 0 = unlimited (default); # entries per chip
-gpgpu_dram_buswidth                    2 # default = 4 bytes (8 bytes per cycle at DDR)
-gpgpu_dram_burst_length                   16 # Burst length of each DRAM request (default = 4 data bus cycle)
-dram_data_command_freq_ratio                    4 # Frequency ratio between DRAM data bus and command bus (default = 2 times, i.e. DDR)
-gpgpu_dram_timing_opt nbk=16:CCD=4:RRD=12:RCD=24:RAS=55:RP=24:RC=78:CL=24:WL=8:CDLR=10:WR=24:nbkgrp=4:CCDL=6:RTPL=4 # DRAM timing parameters = {nbk:tCCD:tRRD:tRCD:tRAS:tRP:tRC:CL:WL:tCDLR:tWR:nbkgrp:tCCDL:tRTPL}
-gpgpu_l2_rop_latency                  194 # ROP queue latency (default 85)
-dram_latency                          96 # DRAM latency (default 30)
-dram_dual_bus_interface                    0 # dual_bus_interface (default = 0) 
-dram_bnk_indexing_policy                    0 # dram_bnk_indexing_policy (0 = normal indexing, 1 = Xoring with the higher bits) (Default = 0)
-dram_bnkgrp_indexing_policy                    1 # dram_bnkgrp_indexing_policy (0 = take higher bits, 1 = take lower bits) (Default = 0)
-dram_seperate_write_queue_enable                    0 # Seperate_Write_Queue_Enable
-dram_write_queue_size             32:28:16 # Write_Queue_Size
-dram_elimnate_rw_turnaround                    0 # elimnate_rw_turnaround i.e set tWTR and tRTW = 0
-icnt_flit_size                        40 # icnt_flit_size
-icnt_flit_size                        40 # icnt_flit_size
-mem_profiler                           0 # memory access runtime profiling (0 = not enabled)
-gpgpu_mem_addr_mapping dramid@8;00000000.00000000.00000000.00000000.0000RRRR.RRRRRRRR.RBBBCCCC.BCCSSSSS # mapping memory address to dram model {dramid@<start bit>;<memory address map>}
-gpgpu_mem_addr_test                    0 # run sweep test to check address mapping for aliased address
-gpgpu_mem_address_mask                    1 # 0 = old addressing mask, 1 = new addressing mask, 2 = new add. mask + flipped bank sel and chip sel bits
-gpgpu_memory_partition_indexing                    0 # 0 = no indexing, 1 = bitwise xoring, 2 = IPoly, 3 = custom indexing
-accelwattch_xml_file accelwattch_sass_sim.xml # AccelWattch XML file
-power_simulation_enabled                    1 # Turn on power simulator (1=On, 0=Off)
-power_per_cycle_dump                    1 # Dump detailed power output each cycle
-hw_perf_file_name            hw_perf.csv # Hardware Performance Statistics file
-hw_perf_bench_name    hw_perf_bench_name # Kernel Name in Hardware Performance Statistics file
-power_simulation_mode                    0 # Switch performance counter input for power simulation (0=Sim, 1=HW, 2=HW-Sim Hybrid)
-dvfs_enabled                           1 # Turn on DVFS for power model
-aggregate_power_stats                    0 # Accumulate power across all kernels
-accelwattch_hybrid_perfsim_L1_RH                    0 # Get L1 Read Hits for Accelwattch-Hybrid from Accel-Sim
-accelwattch_hybrid_perfsim_L1_RM                    0 # Get L1 Read Misses for Accelwattch-Hybrid from Accel-Sim
-accelwattch_hybrid_perfsim_L1_WH                    0 # Get L1 Write Hits for Accelwattch-Hybrid from Accel-Sim
-accelwattch_hybrid_perfsim_L1_WM                    0 # Get L1 Write Misses for Accelwattch-Hybrid from Accel-Sim
-accelwattch_hybrid_perfsim_L2_RH                    0 # Get L2 Read Hits for Accelwattch-Hybrid from Accel-Sim
-accelwattch_hybrid_perfsim_L2_RM                    0 # Get L2 Read Misses for Accelwattch-Hybrid from Accel-Sim
-accelwattch_hybrid_perfsim_L2_WH                    0 # Get L2 Write Hits for Accelwattch-Hybrid from Accel-Sim
-accelwattch_hybrid_perfsim_L2_WM                    0 # Get L2 Write Misses for Accelwattch-Hybrid from Accel-Sim
-accelwattch_hybrid_perfsim_CC_ACC                    0 # Get Constant Cache Acesses for Accelwattch-Hybrid from Accel-Sim
-accelwattch_hybrid_perfsim_SHARED_ACC                    0 # Get Shared Memory Acesses for Accelwattch-Hybrid from Accel-Sim
-accelwattch_hybrid_perfsim_DRAM_RD                    0 # Get DRAM Reads for Accelwattch-Hybrid from Accel-Sim
-accelwattch_hybrid_perfsim_DRAM_WR                    0 # Get DRAM Writes for Accelwattch-Hybrid from Accel-Sim
-accelwattch_hybrid_perfsim_NOC                    0 # Get Interconnect Acesses for Accelwattch-Hybrid from Accel-Sim
-accelwattch_hybrid_perfsim_PIPE_DUTY                    0 # Get Pipeline Duty Cycle Acesses for Accelwattch-Hybrid from Accel-Sim
-accelwattch_hybrid_perfsim_NUM_SM_IDLE                    0 # Get Number of Idle SMs for Accelwattch-Hybrid from Accel-Sim
-accelwattch_hybrid_perfsim_CYCLES                    0 # Get Executed Cycles for Accelwattch-Hybrid from Accel-Sim
-accelwattch_hybrid_perfsim_VOLTAGE                    0 # Get Chip Voltage for Accelwattch-Hybrid from Accel-Sim
-power_trace_enabled                    0 # produce a file for the power trace (1=On, 0=Off)
-power_trace_zlevel                     0 # Compression level of the power trace output log (0=no comp, 9=highest)
-steady_power_levels_enabled                    0 # produce a file for the steady power levels (1=On, 0=Off)
-steady_state_definition                  8:4 # allowed deviation:number of samples
-gpgpu_max_cycle                        0 # terminates gpu simulation early (0 = no limit)
-gpgpu_max_insn                         0 # terminates gpu simulation early (0 = no limit)
-gpgpu_max_cta                          0 # terminates gpu simulation early (0 = no limit)
-gpgpu_max_completed_cta                    0 # terminates gpu simulation early (0 = no limit)
-gpgpu_runtime_stat                  1000 # display runtime statistics such as dram utilization {<freq>:<flag>}
-liveness_message_freq                    1 # Minimum number of seconds between simulation liveness messages (0 = always print)
-gpgpu_compute_capability_major                    7 # Major compute capability version number
-gpgpu_compute_capability_minor                    5 # Minor compute capability version number
-gpgpu_flush_l1_cache                    1 # Flush L1 cache at the end of each kernel call
-gpgpu_flush_l2_cache                    0 # Flush L2 cache at the end of each kernel call
-gpgpu_deadlock_detect                    1 # Stop the simulation at deadlock (1=on (default), 0=off)
-gpgpu_ptx_instruction_classification                    0 # if enabled will classify ptx instruction types per kernel (Max 255 kernels now)
-gpgpu_ptx_sim_mode                     0 # Select between Performance (default) or Functional simulation (1)
-gpgpu_clock_domains 1365:1365:1365:3500.5 # Clock Domain Frequencies in MhZ {<Core Clock>:<ICNT Clock>:<L2 Clock>:<DRAM Clock>}
-gpgpu_max_concurrent_kernel                  128 # maximum kernels that can run concurrently on GPU, set this value according to max resident grids for your compute capability
-gpgpu_cflog_interval                    0 # Interval between each snapshot in control flow logger
-visualizer_enabled                     0 # Turn on visualizer output (1=On, 0=Off)
-visualizer_outputfile                 NULL # Specifies the output log file for visualizer
-visualizer_zlevel                      6 # Compression level of the visualizer output log (0=no comp, 9=highest)
-gpgpu_stack_size_limit                 1024 # GPU thread stack size
-gpgpu_heap_size_limit              8388608 # GPU malloc heap size 
-gpgpu_runtime_sync_depth_limit                    2 # GPU device runtime synchronize depth
-gpgpu_runtime_pending_launch_count_limit                 2048 # GPU device runtime pending launch count
-trace_enabled                          0 # Turn on traces
-trace_components                    none # comma seperated list of traces to enable. Complete list found in trace_streams.tup. Default none
-trace_sampling_core                    0 # The core which is printed using CORE_DPRINTF. Default 0
-trace_sampling_memory_partition                   -1 # The memory partition which is printed using MEMPART_DPRINTF. Default -1 (i.e. all)
-enable_ptx_file_line_stats                    1 # Turn on PTX source line statistic profiling. (1 = On)
-ptx_line_stats_filename gpgpu_inst_stats.txt # Output file for PTX source line statistics.
-gpgpu_kernel_launch_latency                 5000 # Kernel launch latency in cycles. Default: 0
-gpgpu_cdp_enabled                      0 # Turn on CDP
-gpgpu_TB_launch_latency                    0 # thread block launch latency in cycles. Default: 0
-mem_runtime_stat                     100 # memory access runtime profiling samplinga51667d8e15abdb1f03be3ee4c9e19ba  /home/pars/Documents/sim_11/cc_warp
Extracting PTX file and ptxas options    1: cc_warp.1.sm_75.ptx -arch=sm_75
 freq
-L1D_metrics                            0 # memory access runtime profiling for L1 data cache
-IPC_per_prof_interval                    0 # IPC per profiling interval
-instruction_monitor                    0 # Instruction monitor
-noncoal_metrics                        0 # memory access runtime profiling for shared memory
-L2_metrics                             0 # memory access runtime profiling for L2 cache
-DRAM_metrics                           0 # memory access runtime profiling for DRAM
-Shmem_metrics                          0 # memory access runtime profiling for noncoalesced accesses
-store_enable                           0 # Enable stores for memory profiling
-accumulate_stats                       0 # Accumulate stats for the memory profiling
-dump_enable                            0 # Process dump enable flag - (def = 0)
-flush_l1d                              0 # Enable flushings for L1D caches - (default = 0)
-flush_l2                               0 # Enable flushings for L2 caches - (default = 0)
-flush_dram                             0 # Enable flushings for DRAM - (default = 0)
-flush_noncoalesceds                    0 # Enable flushings for non coalesced accesses - (default = 0)
-flush_shmems                           0 # Enable flushings for shared memory accesses - (default = 0)
-error_percentage          21474836480001 # Error percentage for the flushes - (default = 1)
-dump_sampling_cycle       21474836485000 # Dump sampling frequency - (default = 5000)
-flush_acc_type                         2 # Flush access types
-monitor_sampling_cycle                 5000 # Monitoring sampling cycle - (default = 5000)
DRAM Timing Options:
nbk                                    16 # number of banks
CCD                                     4 # column to column delay
RRD                                    12 # minimal delay between activation of rows in different banks
RCD                                    24 # row to column delay
RAS                                    55 # time needed to activate row
RP                                     24 # time needed to precharge (deactivate) row
RC                                     78 # row cycle time
CDLR                                   10 # switching from write to read (changes tWTR)
WR                                     24 # last data-in to row precharge
CL                                     24 # CAS latency
WL                                      8 # Write latency
nbkgrp                                  4 # number of bank groups
CCDL                                    6 # column to column delay between accesses to different bank groups
RTPL                                    4 # read to precharge delay between accesses to different bank groups
Total number of memory sub partition = 24
addr_dec_mask[CHIP]  = 0000000000000000 	high:64 low:0
addr_dec_mask[BK]    = 0000000000007080 	high:15 low:7
addr_dec_mask[ROW]   = 000000000fff8000 	high:28 low:15
addr_dec_mask[COL]   = 0000000000000f7f 	high:12 low:0
addr_dec_mask[BURST] = 000000000000001f 	high:5 low:0
sub_partition_id_mask = 0000000000000080
GPGPU-Sim uArch: clock freqs: 1365000000.000000:1365000000.000000:1365000000.000000:3500500000.000000
GPGPU-Sim uArch: clock periods: 0.00000000073260073260:0.00000000073260073260:0.00000000073260073260:0.00000000028567347522
*** Initializing Memory Statistics ***
GPGPU-Sim uArch: performance model initialization complete.
self exe links to: /home/pars/Documents/sim_11/cc_warp
self exe links to: /home/pars/Documents/sim_11/cc_warp
11.0
GPGPU-Sim PTX: __cudaRegisterFatBinary, fat_cubin_handle = 1, filename=default
self exe links to: /home/pars/Documents/sim_11/cc_warp
Running md5sum using "md5sum /home/pars/Documents/sim_11/cc_warp "
self exe links to: /home/pars/Documents/sim_11/cc_warp
Extracting specific PTX file named cc_warp.1.sm_75.ptx 
GPGPU-Sim PTX: __cudaRegisterFunction _Z8shortcutiPi : hostFun 0x0x55d3474b7f0b, fat_cubin_handle = 1
GPGPU-Sim PTX: Parsing cc_warp.1.sm_75.ptx
GPGPU-Sim PTX: allocating shared region for "_ZZ4hookiPKmPKiPiPbE4ptrs" from 0x0 to 0x40 (shared memory space)
GPGPU-Sim PTX: instruction assembly for function '_Z4hookiPKmPKiPiPb'...   done.
GPGPU-Sim PTX: instruction assembly for function '_Z8shortcutiPi'...   done.
GPGPU-Sim PTX: finished parsing EMBEDDED .ptx file cc_warp.1.sm_75.ptx
GPGPU-Sim PTX: loading globals with explicit initializers... 
GPGPU-Sim PTX: finished loading globals (0 bytes total).
GPGPU-Sim PTX: loading constants with explicit initializers...  done.
GPGPU-Sim PTX: Loading PTXInfo from cc_warp.1.sm_75.ptx
GPGPU-Sim PTX: Kernel '_Z8shortcutiPi' : regs=12, lmem=0, smem=0, cmem=368
GPGPU-Sim PTX: Kernel '_Z4hookiPKmPKiPiPb' : regs=23, lmem=0, smem=64, cmem=392
GPGPU-Sim PTX: __cudaRegisterFunction _Z4hookiPKmPKiPiPb : hostFun 0x0x55d3474b7d90, fat_cubin_handle = 1
Connected Component by Xuhao Chen
Reading (.mtx) input file ../CudaBenchmarks/gardenia/datasets/web-Google.mtx
Removing redundent edges... 1565976 redundent edges are removed
|V| 916428 |E| 8644102
This graph is symmetrized
Launching CUDA CC solver (120 CTAs, 256 threads/CTA) ...
GPGPU-Sim PTX: Setting up arguments for 4 bytes starting at 0x7fff20964dfc..
GPGPU-Sim PTX: Setting up arguments for 8 bytes starting at 0x7fff20964df0..
GPGPU-Sim PTX: Setting up arguments for 8 bytes starting at 0x7fff20964de8..
GPGPU-Sim PTX: Setting up arguments for 8 bytes starting at 0x7fff20964de0..
GPGPU-Sim PTX: Setting up arguments for 8 bytes starting at 0x7fff20964dd8..

GPGPU-Sim PTX: cudaLaunch for 0x0x55d3474b7d90 (mode=performance simulation) on stream 0
GPGPU-Sim PTX: finding reconvergence points for '_Z4hookiPKmPKiPiPb'...
GPGPU-Sim PTX: Finding dominators for '_Z4hookiPKmPKiPiPb'...
GPGPU-Sim PTX: Finding immediate dominators for '_Z4hookiPKmPKiPiPb'...
GPGPU-Sim PTX: Finding postdominators for '_Z4hookiPKmPKiPiPb'...
GPGPU-Sim PTX: Finding immediate postdominators for '_Z4hookiPKmPKiPiPb'...
GPGPU-Sim PTX: pre-decoding instructions for '_Z4hookiPKmPKiPiPb'...
GPGPU-Sim PTX: reconvergence points for _Z4hookiPKmPKiPiPb...
GPGPU-Sim PTX:  1 (potential) branch divergence @  PC=0x090 (cc_warp.1.sm_75.ptx:49) @%p1 bra $L__BB0_34;

GPGPU-Sim PTX:    immediate post dominator      @  PC=0x5c8 (cc_warp.1.sm_75.ptx:277) ret;

GPGPU-Sim PTX:  2 (potential) branch divergence @  PC=0x0f8 (cc_warp.1.sm_75.ptx:65) @%p2 bra $L__BB0_4;

GPGPU-Sim PTX:    immediate post dominator      @  PC=0x128 (cc_warp.1.sm_75.ptx:74) ld.shared.u32 %r9, [%r5];

GPGPU-Sim PTX:  3 (potential) branch divergence @  PC=0x160 (cc_warp.1.sm_75.ptx:81) @%p3 bra $L__BB0_33;

GPGPU-Sim PTX:    immediate post dominator      @  PC=0x5b0 (cc_warp.1.sm_75.ptx:272) add.s32 %r87, %r87, %r7;

GPGPU-Sim PTX:  4 (potential) branch divergence @  PC=0x1a0 (cc_warp.1.sm_75.ptx:90) @%p4 bra $L__BB0_18;

GPGPU-Sim PTX:    immediate post dominator      @  PC=0x370 (cc_warp.1.sm_75.ptx:171) setp.lt.u32 %p13, %r13, 96;

GPGPU-Sim PTX:  5 (potential) branch divergence @  PC=0x1e0 (cc_warp.1.sm_75.ptx:101) @%p5 bra $L__BB0_9;

GPGPU-Sim PTX:    immediate post dominator      @  PC=0x238 (cc_warp.1.sm_75.ptx:116) add.s32 %r88, %r11, 32;

GPGPU-Sim PTX:  6 (potential) branch divergence @  PC=0x220 (cc_warp.1.sm_75.ptx:110) @%p6 bra $L__BB0_9;

GPGPU-Sim PTX:    immediate post dominator      @  PC=0x238 (cc_warp.1.sm_75.ptx:116) add.s32 %r88, %r11, 32;

GPGPU-Sim PTX:  7 (potential) branch divergence @  PC=0x248 (cc_warp.1.sm_75.ptx:118) @%p7 bra $L__BB0_18;

GPGPU-Sim PTX:    immediate post dominator      @  PC=0x370 (cc_warp.1.sm_75.ptx:171) setp.lt.u32 %p13, %r13, 96;

GPGPU-Sim PTX:  8 (potential) branch divergence @  PC=0x278 (cc_warp.1.sm_75.ptx:127) @%p8 bra $L__BB0_13;

GPGPU-Sim PTX:    immediate post dominator      @  PC=0x2d0 (cc_warp.1.sm_75.ptx:142) add.s32 %r88, %r11, 64;

GPGPU-Sim PTX:  9 (potential) branch divergence @  PC=0x2b8 (cc_warp.1.sm_75.ptx:136) @%p9 bra $L__BB0_13;

GPGPU-Sim PTX:    immediate post dominator      @  PC=0x2d0 (cc_warp.1.sm_75.ptx:142) add.s32 %r88, %r11, 64;

GPGPU-Sim PTX: 10 (potential) branch divergence @  PC=0x2e0 (cc_warp.1.sm_75.ptx:144) @%p10 bra $L__BB0_18;

GPGPU-Sim PTX:    immediate post dominator      @  PC=0x370 (cc_warp.1.sm_75.ptx:171) setp.lt.u32 %p13, %r13, 96;

GPGPU-Sim PTX: 11 (potential) branch divergence @  PC=0x310 (cc_warp.1.sm_75.ptx:153) @%p11 bra $L__BB0_17;

GPGPU-Sim PTX:    immediate post dominator      @  PC=0x368 (cc_warp.1.sm_75.ptx:168) add.s32 %r88, %r11, 96;

GPGPU-Sim PTX: 12 (potential) branch divergence @  PC=0x350 (cc_warp.1.sm_75.ptx:162) @%p12 bra $L__BB0_17;

GPGPU-Sim PTX:    immediate post dominator      @  PC=0x368 (cc_warp.1.sm_75.ptx:168) add.s32 %r88, %r11, 96;

GPGPU-Sim PTX: 13 (potential) branch divergence @  PC=0x378 (cc_warp.1.sm_75.ptx:172) @%p13 bra $L__BB0_33;

GPGPU-Sim PTX:    immediate post dominator      @  PC=0x5b0 (cc_warp.1.sm_75.ptx:272) add.s32 %r87, %r87, %r7;

GPGPU-Sim PTX: 14 (potential) branch divergence @  PC=0x3b8 (cc_warp.1.sm_75.ptx:185) @%p14 bra $L__BB0_23;

GPGPU-Sim PTX:    immediate post dominator      @  PC=0x410 (cc_warp.1.sm_75.ptx:200) ld.global.u32 %r73, [%rd48+128];

GPGPU-Sim PTX: 15 (potential) branch divergence @  PC=0x3f8 (cc_warp.1.sm_75.ptx:194) @%p15 bra $L__BB0_23;

GPGPU-Sim PTX:    immediate post dominator      @  PC=0x410 (cc_warp.1.sm_75.ptx:200) ld.global.u32 %r73, [%rd48+128];

GPGPU-Sim PTX: 16 (potential) branch divergence @  PC=0x438 (cc_warp.1.sm_75.ptx:207) @%p16 bra $L__BB0_26;

GPGPU-Sim PTX:    immediate post dominator      @  PC=0x490 (cc_warp.1.sm_75.ptx:222) ld.global.u32 %r78, [%rd48+256];

GPGPU-Sim PTX: 17 (potential) branch divergence @  PC=0x478 (cc_warp.1.sm_75.ptx:216) @%p17 bra $L__BB0_26;

GPGPU-Sim PTX:    immediate post dominator      @  PC=0x490 (cc_warp.1.sm_75.ptx:222) ld.global.u32 %r78, [%rd48+256];

GPGPU-Sim PTX: 18 (potential) branch divergence @  PC=0x4b8 (cc_warp.1.sm_75.ptx:229) @%p18 bra $L__BB0_29;

GPGPU-Sim PTX:    immediate post dominator      @  PC=0x510 (cc_warp.1.sm_75.ptx:244) ld.global.u32 %r83, [%rd48+384];

GPGPU-Sim PTX: 19 (potential) branch divergence @  PC=0x4f8 (cc_warp.1.sm_75.ptx:238) @%p19 bra $L__BB0_29;

GPGPU-Sim PTX:    immediate post dominator      @  PC=0x510 (cc_warp.1.sm_75.ptx:244) ld.global.u32 %r83, [%rd48+384];

GPGPU-Sim PTX: 20 (potential) branch divergence @  PC=0x538 (cc_warp.1.sm_75.ptx:251) @%p20 bra $L__BB0_32;

GPGPU-Sim PTX:    immediate post dominator      @  PC=0x590 (cc_warp.1.sm_75.ptx:266) add.s32 %r88, %r88, 128;

GPGPU-Sim PTX: 21 (potential) branch divergence @  PC=0x578 (cc_warp.1.sm_75.ptx:260) @%p21 bra $L__BB0_32;

GPGPU-Sim PTX:    immediate post dominator      @  PC=0x590 (cc_warp.1.sm_75.ptx:266) add.s32 %r88, %r88, 128;

GPGPU-Sim PTX: 22 (potential) branch divergence @  PC=0x5a8 (cc_warp.1.sm_75.ptx:269) @%p22 bra $L__BB0_20;

GPGPU-Sim PTX:    immediate post dominator      @  PC=0x5b0 (cc_warp.1.sm_75.ptx:272) add.s32 %r87, %r87, %r7;

GPGPU-Sim PTX: 23 (potential) branch divergence @  PC=0x5c0 (cc_warp.1.sm_75.ptx:274) @%p23 bra $L__BB0_2;

GPGPU-Sim PTX:    immediate post dominator      @  PC=0x5c8 (cc_warp.1.sm_75.ptx:277) ret;

GPGPU-Sim PTX: ... end of reconvergence points for _Z4hookiPKmPKiPiPb
GPGPU-Sim PTX: ... done pre-decoding instructions for '_Z4hookiPKmPKiPiPb'.
GPGPU-Sim PTX: pushing kernel '_Z4hookiPKmPKiPiPb' to stream 0, gridDim= (120,1,1) blockDim = (256,1,1) 
GPGPU-Sim uArch: Shader 0 bind to kernel 1 '_Z4hookiPKmPKiPiPb'
GPGPU-Sim uArch: CTA/core = 4, limited by: threads
GPGPU-Sim: Reconfigure L1 cache to 64KB
GPGPU-Sim uArch: Shader 1 bind to kernel 1 '_Z4hookiPKmPKiPiPb'
GPGPU-Sim uArch: Shader 2 bind to kernel 1 '_Z4hookiPKmPKiPiPb'
GPGPU-Sim uArch: Shader 3 bind to kernel 1 '_Z4hookiPKmPKiPiPb'
GPGPU-Sim uArch: Shader 4 bind to kernel 1 '_Z4hookiPKmPKiPiPb'
GPGPU-Sim uArch: Shader 5 bind to kernel 1 '_Z4hookiPKmPKiPiPb'
GPGPU-Sim uArch: Shader 6 bind to kernel 1 '_Z4hookiPKmPKiPiPb'
GPGPU-Sim uArch: Shader 7 bind to kernel 1 '_Z4hookiPKmPKiPiPb'
GPGPU-Sim uArch: Shader 8 bind to kernel 1 '_Z4hookiPKmPKiPiPb'
GPGPU-Sim uArch: Shader 9 bind to kernel 1 '_Z4hookiPKmPKiPiPb'
GPGPU-Sim uArch: Shader 10 bind to kernel 1 '_Z4hookiPKmPKiPiPb'
GPGPU-Sim uArch: Shader 11 bind to kernel 1 '_Z4hookiPKmPKiPiPb'
GPGPU-Sim uArch: Shader 12 bind to kernel 1 '_Z4hookiPKmPKiPiPb'
GPGPU-Sim uArch: Shader 13 bind to kernel 1 '_Z4hookiPKmPKiPiPb'
GPGPU-Sim uArch: Shader 14 bind to kernel 1 '_Z4hookiPKmPKiPiPb'
GPGPU-Sim uArch: Shader 15 bind to kernel 1 '_Z4hookiPKmPKiPiPb'
GPGPU-Sim uArch: Shader 16 bind to kernel 1 '_Z4hookiPKmPKiPiPb'
GPGPU-Sim uArch: Shader 17 bind to kernel 1 '_Z4hookiPKmPKiPiPb'
GPGPU-Sim uArch: Shader 18 bind to kernel 1 '_Z4hookiPKmPKiPiPb'
GPGPU-Sim uArch: Shader 19 bind to kernel 1 '_Z4hookiPKmPKiPiPb'
GPGPU-Sim uArch: Shader 20 bind to kernel 1 '_Z4hookiPKmPKiPiPb'
GPGPU-Sim uArch: Shader 21 bind to kernel 1 '_Z4hookiPKmPKiPiPb'
GPGPU-Sim uArch: Shader 22 bind to kernel 1 '_Z4hookiPKmPKiPiPb'
GPGPU-Sim uArch: Shader 23 bind to kernel 1 '_Z4hookiPKmPKiPiPb'
GPGPU-Sim uArch: Shader 24 bind to kernel 1 '_Z4hookiPKmPKiPiPb'
GPGPU-Sim uArch: Shader 25 bind to kernel 1 '_Z4hookiPKmPKiPiPb'
GPGPU-Sim uArch: Shader 26 bind to kernel 1 '_Z4hookiPKmPKiPiPb'
GPGPU-Sim uArch: Shader 27 bind to kernel 1 '_Z4hookiPKmPKiPiPb'
GPGPU-Sim uArch: Shader 28 bind to kernel 1 '_Z4hookiPKmPKiPiPb'
GPGPU-Sim uArch: Shader 29 bind to kernel 1 '_Z4hookiPKmPKiPiPb'
Destroy streams for kernel 1: size 0
kernel_name = _Z4hookiPKmPKiPiPb 
kernel_launch_uid = 1 
gpu_sim_cycle = 2660313
gpu_sim_insn = 541501436
gpu_ipc =     203.5480
gpu_tot_sim_cycle = 2660313
gpu_tot_sim_insn = 541501436
gpu_tot_ipc =     203.5480
gpu_tot_issued_cta = 120
gpu_occupancy = 89.3708% 
gpu_tot_occupancy = 89.3708% 
max_total_param_size = 0
gpu_stall_dramfull = 1580
gpu_stall_icnt2sh    = 0
partiton_level_parallism =       5.2933
partiton_level_parallism_total  =       5.2933
partiton_level_parallism_util =       6.0650
partiton_level_parallism_util_total  =       6.0650
L2_BW  =     231.2128 GB/Sec
L2_BW_total  =     231.2128 GB/Sec
gpu_total_sim_rate=25391

========= Core cache stats =========
L1I_cache:
	L1I_total_cache_accesses = 0
	L1I_total_cache_misses = 0
	L1I_total_cache_pending_hits = 0
	L1I_total_cache_reservation_fails = 0
L1D_cache:
	L1D_cache_core[0]: Access = 556715, Miss = 443075, Miss_rate = 0.796, Pending_hits = 10574, Reservation_fails = 50306
	L1D_cache_core[1]: Access = 539498, Miss = 428497, Miss_rate = 0.794, Pending_hits = 11165, Reservation_fails = 46998
	L1D_cache_core[2]: Access = 549859, Miss = 441570, Miss_rate = 0.803, Pending_hits = 10543, Reservation_fails = 52841
	L1D_cache_core[3]: Access = 533021, Miss = 421738, Miss_rate = 0.791, Pending_hits = 11697, Reservation_fails = 46397
	L1D_cache_core[4]: Access = 524732, Miss = 418195, Miss_rate = 0.797, Pending_hits = 9343, Reservation_fails = 46453
	L1D_cache_core[5]: Access = 533726, Miss = 425436, Miss_rate = 0.797, Pending_hits = 9045, Reservation_fails = 45120
	L1D_cache_core[6]: Access = 546143, Miss = 431739, Miss_rate = 0.791, Pending_hits = 11573, Reservation_fails = 50745
	L1D_cache_core[7]: Access = 530268, Miss = 421580, Miss_rate = 0.795, Pending_hits = 10090, Reservation_fails = 45142
	L1D_cache_core[8]: Access = 545641, Miss = 430311, Miss_rate = 0.789, Pending_hits = 12545, Reservation_fails = 51910
	L1D_cache_core[9]: Access = 536125, Miss = 425318, Miss_rate = 0.793, Pending_hits = 10806, Reservation_fails = 46140
	L1D_cache_core[10]: Access = 542808, Miss = 433297, Miss_rate = 0.798, Pending_hits = 10341, Reservation_fails = 52886
	L1D_cache_core[11]: Access = 554048, Miss = 447307, Miss_rate = 0.807, Pending_hits = 8735, Reservation_fails = 51201
	L1D_cache_core[12]: Access = 545721, Miss = 431056, Miss_rate = 0.790, Pending_hits = 11537, Reservation_fails = 50898
	L1D_cache_core[13]: Access = 524607, Miss = 413991, Miss_rate = 0.789, Pending_hits = 11653, Reservation_fails = 45704
	L1D_cache_core[14]: Access = 548098, Miss = 437632, Miss_rate = 0.798, Pending_hits = 8953, Reservation_fails = 52407
	L1D_cache_core[15]: Access = 524667, Miss = 410157, Miss_rate = 0.782, Pending_hits = 12291, Reservation_fails = 42601
	L1D_cache_core[16]: Access = 533123, Miss = 426482, Miss_rate = 0.800, Pending_hits = 9551, Reservation_fails = 46636
	L1D_cache_core[17]: Access = 540159, Miss = 425985, Miss_rate = 0.789, Pending_hits = 11874, Reservation_fails = 46895
	L1D_cache_core[18]: Access = 552555, Miss = 441537, Miss_rate = 0.799, Pending_hits = 9038, Reservation_fails = 53870
	L1D_cache_core[19]: Access = 545985, Miss = 438339, Miss_rate = 0.803, Pending_hits = 9087, Reservation_fails = 50347
	L1D_cache_core[20]: Access = 534608, Miss = 424550, Miss_rate = 0.794, Pending_hits = 10284, Reservation_fails = 49365
	L1D_cache_core[21]: Access = 543607, Miss = 439368, Miss_rate = 0.808, Pending_hits = 7824, Reservation_fails = 48512
	L1D_cache_core[22]: Access = 529697, Miss = 416337, Miss_rate = 0.786, Pending_hits = 12137, Reservation_fails = 47279
	L1D_cache_core[23]: Access = 559768, Miss = 447429, Miss_rate = 0.799, Pending_hits = 11092, Reservation_fails = 51475
	L1D_cache_core[24]: Access = 546443, Miss = 437934, Miss_rate = 0.801, Pending_hits = 9819, Reservation_fails = 52563
	L1D_cache_core[25]: Access = 563443, Miss = 454553, Miss_rate = 0.807, Pending_hits = 10016, Reservation_fails = 54180
	L1D_cache_core[26]: Access = 529951, Miss = 416639, Miss_rate = 0.786, Pending_hits = 12198, Reservation_fails = 46008
	L1D_cache_core[27]: Access = 539917, Miss = 430494, Miss_rate = 0.797, Pending_hits = 9849, Reservation_fails = 48072
	L1D_cache_core[28]: Access = 532104, Miss = 420488, Miss_rate = 0.790, Pending_hits = 11309, Reservation_fails = 46913
	L1D_cache_core[29]: Access = 531333, Miss = 422587, Miss_rate = 0.795, Pending_hits = 10379, Reservation_fails = 42646
	L1D_total_cache_accesses = 16218370
	L1D_total_cache_misses = 12903621
	L1D_total_cache_miss_rate = 0.7956
	L1D_total_cache_pending_hits = 315348
	L1D_total_cache_reservation_fails = 1462510
	L1D_cache_data_port_util = 0.042
	L1D_cache_fill_port_util = 0.179
L1C_cache:
	L1C_total_cache_accesses = 0
	L1C_total_cache_misses = 0
	L1C_total_cache_pending_hits = 0
	L1C_total_cache_reservation_fails = 0
L1T_cache:
	L1T_total_cache_accesses = 0
	L1T_total_cache_misses = 0
	L1T_total_cache_pending_hits = 0
	L1T_total_cache_reservation_fails = 0

Total_core_cache_stats:
	Total_core_cache_stats_breakdown[GLOBAL_ACC_R][HIT] = 1821100
	Total_core_cache_stats_breakdown[GLOBAL_ACC_R][HIT_RESERVED] = 315348
	Total_core_cache_stats_breakdown[GLOBAL_ACC_R][MISS] = 11793408
	Total_core_cache_stats_breakdown[GLOBAL_ACC_R][RESERVATION_FAIL] = 1429194
	Total_core_cache_stats_breakdown[GLOBAL_ACC_R][SECTOR_MISS] = 1109917
	Total_core_cache_stats_breakdown[GLOBAL_ACC_R][MSHR_HIT] = 315348
	Total_core_cache_stats_breakdown[LOCAL_ACC_R][HIT] = 0
	Total_core_cache_stats_breakdown[LOCAL_ACC_R][HIT_RESERVED] = 0
	Total_core_cache_stats_breakdown[LOCAL_ACC_R][MISS] = 0
	Total_core_cache_stats_breakdown[LOCAL_ACC_R][RESERVATION_FAIL] = 0
	Total_core_cache_stats_breakdown[LOCAL_ACC_R][SECTOR_MISS] = 0
	Total_core_cache_stats_breakdown[LOCAL_ACC_R][MSHR_HIT] = 0
	Total_core_cache_stats_breakdown[CONST_ACC_R][HIT] = 0
	Total_core_cache_stats_breakdown[CONST_ACC_R][HIT_RESERVED] = 0
	Total_core_cache_stats_breakdown[CONST_ACC_R][MISS] = 0
	Total_core_cache_stats_breakdown[CONST_ACC_R][RESERVATION_FAIL] = 0
	Total_core_cache_stats_breakdown[CONST_ACC_R][SECTOR_MISS] = 0
	Total_core_cache_stats_breakdown[CONST_ACC_R][MSHR_HIT] = 0
	Total_core_cache_stats_breakdown[TEXTURE_ACC_R][HIT] = 0
	Total_core_cache_stats_breakdown[TEXTURE_ACC_R][HIT_RESERVED] = 0
	Total_core_cache_stats_breakdown[TEXTURE_ACC_R][MISS] = 0
	Total_core_cache_stats_breakdown[TEXTURE_ACC_R][RESERVATION_FAIL] = 0
	Total_core_cache_stats_breakdown[TEXTURE_ACC_R][SECTOR_MISS] = 0
	Total_core_cache_stats_breakdown[TEXTURE_ACC_R][MSHR_HIT] = 0
	Total_core_cache_stats_breakdown[GLOBAL_ACC_W][HIT] = 1178301
	Total_core_cache_stats_breakdown[GLOBAL_ACC_W][HIT_RESERVED] = 0
	Total_core_cache_stats_breakdown[GLOBAL_ACC_W][MISS] = 295
	Total_core_cache_stats_breakdown[GLOBAL_ACC_W][RESERVATION_FAIL] = 33316
	Total_core_cache_stats_breakdown[GLOBAL_ACC_W][SECTOR_MISS] = 1
	Total_core_cache_stats_breakdown[GLOBAL_ACC_W][MSHR_HIT] = 0
	Total_core_cache_stats_breakdown[LOCAL_ACC_W][HIT] = 0
	Total_core_cache_stats_breakdown[LOCAL_ACC_W][HIT_RESERVED] = 0
	Total_core_cache_stats_breakdown[LOCAL_ACC_W][MISS] = 0
	Total_core_cache_stats_breakdown[LOCAL_ACC_W][RESERVATION_FAIL] = 0
	Total_core_cache_stats_breakdown[LOCAL_ACC_W][SECTOR_MISS] = 0
	Total_core_cache_stats_breakdown[LOCAL_ACC_W][MSHR_HIT] = 0
	Total_core_cache_stats_breakdown[L1_WRBK_ACC][HIT] = 0
	Total_core_cache_stats_breakdown[L1_WRBK_ACC][HIT_RESERVED] = 0
	Total_core_cache_stats_breakdown[L1_WRBK_ACC][MISS] = 0
	Total_core_cache_stats_breakdown[L1_WRBK_ACC][RESERVATION_FAIL] = 0
	Total_core_cache_stats_breakdown[L1_WRBK_ACC][SECTOR_MISS] = 0
	Total_core_cache_stats_breakdown[L1_WRBK_ACC][MSHR_HIT] = 0
	Total_core_cache_stats_breakdown[L2_WRBK_ACC][HIT] = 0
	Total_core_cache_stats_breakdown[L2_WRBK_ACC][HIT_RESERVED] = 0
	Total_core_cache_stats_breakdown[L2_WRBK_ACC][MISS] = 0
	Total_core_cache_stats_breakdown[L2_WRBK_ACC][RESERVATION_FAIL] = 0
	Total_core_cache_stats_breakdown[L2_WRBK_ACC][SECTOR_MISS] = 0
	Total_core_cache_stats_breakdown[L2_WRBK_ACC][MSHR_HIT] = 0
	Total_core_cache_stats_breakdown[INST_ACC_R][HIT] = 0
	Total_core_cache_stats_breakdown[INST_ACC_R][HIT_RESERVED] = 0
	Total_core_cache_stats_breakdown[INST_ACC_R][MISS] = 0
	Total_core_cache_stats_breakdown[INST_ACC_R][RESERVATION_FAIL] = 0
	Total_core_cache_stats_breakdown[INST_ACC_R][SECTOR_MISS] = 0
	Total_core_cache_stats_breakdown[INST_ACC_R][MSHR_HIT] = 0
	Total_core_cache_stats_breakdown[L1_WR_ALLOC_R][HIT] = 0
	Total_core_cache_stats_breakdown[L1_WR_ALLOC_R][HIT_RESERVED] = 0
	Total_core_cache_stats_breakdown[L1_WR_ALLOC_R][MISS] = 0
	Total_core_cache_stats_breakdown[L1_WR_ALLOC_R][RESERVATION_FAIL] = 0
	Total_core_cache_stats_breakdown[L1_WR_ALLOC_R][SECTOR_MISS] = 0
	Total_core_cache_stats_breakdown[L1_WR_ALLOC_R][MSHR_HIT] = 0
	Total_core_cache_stats_breakdown[L2_WR_ALLOC_R][HIT] = 0
	Total_core_cache_stats_breakdown[L2_WR_ALLOC_R][HIT_RESERVED] = 0
	Total_core_cache_stats_breakdown[L2_WR_ALLOC_R][MISS] = 0
	Total_core_cache_stats_breakdown[L2_WR_ALLOC_R][RESERVATION_FAIL] = 0
	Total_core_cache_stats_breakdown[L2_WR_ALLOC_R][SECTOR_MISS] = 0
	Total_core_cache_stats_breakdown[L2_WR_ALLOC_R][MSHR_HIT] = 0
	Total_core_cache_stats_breakdown[GLOBAL_ACC_R][TOTAL_ACCESS] = 15039773
	Total_core_cache_stats_breakdown[GLOBAL_ACC_W][TOTAL_ACCESS] = 1178597

Total_core_cache_fail_stats:
	Total_core_cache_fail_stats_breakdown[GLOBAL_ACC_R][LINE_ALLOC_FAIL] = 356
	Total_core_cache_fail_stats_breakdown[GLOBAL_ACC_R][MISS_QUEUE_FULL] = 1428802
	Total_core_cache_fail_stats_breakdown[GLOBAL_ACC_R][MSHR_ENRTY_FAIL] = 36
	Total_core_cache_fail_stats_breakdown[GLOBAL_ACC_W][MISS_QUEUE_FULL] = 33316
ctas_completed 120, Shader 0 warp_id issue ditsribution:
warp_id:
0, 1, 2, 3, 4, 5, 6, 7, 8, 9, 10, 11, 12, 13, 14, 15, 16, 17, 18, 19, 20, 21, 22, 23, 24, 25, 26, 27, 28, 29, 30, 31, 
distro:
43294, 43120, 43727, 43236, 43940, 43717, 43197, 43097, 43473, 43402, 43405, 43330, 43500, 43725, 44190, 43482, 44919, 42932, 44473, 48057, 43308, 45524, 43529, 43332, 43697, 43436, 43296, 43984, 43321, 43662, 43268, 43188, 
gpgpu_n_tot_thrd_icount = 1338480960
gpgpu_n_tot_w_icount = 41827530
gpgpu_n_stall_shd_mem = 4253210
gpgpu_n_mem_read_local = 0
gpgpu_n_mem_write_local = 0
gpgpu_n_mem_read_global = 12903325
gpgpu_n_mem_write_global = 1178597
gpgpu_n_mem_texture = 0
gpgpu_n_mem_const = 0
gpgpu_n_load_insn  = 53308233
gpgpu_n_store_insn = 2299620
gpgpu_n_shmem_insn = 60484248
gpgpu_n_sstarr_insn = 0
gpgpu_n_tex_insn = 0
gpgpu_n_const_mem_insn = 0
gpgpu_n_param_mem_insn = 153600
gpgpu_n_shmem_bkconflict = 0
gpgpu_n_cache_bkconflict = 0
gpgpu_n_intrawarp_mshr_merge = 0
gpgpu_n_cmem_portconflict = 0
gpgpu_stall_shd_mem[c_mem][resource_stall] = 0
gpgpu_stall_shd_mem[s_mem][bk_conf] = 0
gpgpu_stall_shd_mem[gl_mem][resource_stall] = 3882064
gpgpu_stall_shd_mem[gl_mem][coal_stall] = 371146
gpgpu_stall_shd_mem[gl_mem][data_port_stall] = 0
gpu_reg_bank_conflict_stalls = 0
Warp Occupancy Distribution:
Stall:230291	W0_Idle:11858425	W0_Scoreboard:234042542	W1:5181449	W2:8143873	W3:2407868	W4:1861900	W5:1479495	W6:1237690	W7:1080946	W8:1010273	W9:906024	W10:798275	W11:696317	W12:612205	W13:547017	W14:476054	W15:424887	W16:385816	W17:334473	W18:308531	W19:314406	W20:298310	W21:219566	W22:174277	W23:140392	W24:123761	W25:109147	W26:98205	W27:94643	W28:89759	W29:86984	W30:90572	W31:95696	W32:11998719
single_issue_nums: WS0:10463945	WS1:10457798	WS2:10456609	WS3:10449178	
dual_issue_nums: WS0:0	WS1:0	WS2:0	WS3:0	
traffic_breakdown_coretomem[GLOBAL_ACC_R] = 103226600 {8:12903325,}
traffic_breakdown_coretomem[GLOBAL_ACC_W] = 47143880 {40:1178597,}
traffic_breakdown_memtocore[GLOBAL_ACC_R] = 516133000 {40:12903325,}
traffic_breakdown_memtocore[GLOBAL_ACC_W] = 9428776 {8:1178597,}
maxmflatency = 5377 
max_icnt2mem_latency = 908 
maxmrqlatency = 5032 
max_icnt2sh_latency = 68 
averagemflatency = 418 
avg_icnt2mem_latency = 42 
avg_mrq_latency = 159 
avg_icnt2sh_latency = 2 
mrq_lat_table:1211883 	46018 	95350 	202370 	470522 	828255 	1396979 	1908377 	1338856 	282641 	37597 	2942 	39 	0 	0 	0 	0 	0 	0 	0 	0 	0 	0 	0 	0 	0 	0 	0 	0 	0 	0 	0 	
dq_lat_table:0 	0 	0 	0 	0 	0 	0 	0 	0 	0 	0 	0 	0 	0 	0 	0 	0 	0 	0 	0 	0 	0 	0 	0 	0 	0 	0 	0 	0 	0 	0 	0 	
mf_lat_table:0 	0 	0 	0 	0 	0 	0 	6188692 	3882132 	3785244 	217609 	8109 	136 	0 	0 	0 	0 	0 	0 	0 	0 	0 	0 	0 	0 	0 	0 	0 	0 	0 	0 	0 	
icnt2mem_lat_table:0 	0 	0 	0 	0 	13682491 	269175 	82776 	39132 	8348 	0 	0 	0 	0 	0 	0 	0 	0 	0 	0 	0 	0 	0 	0 	
icnt2sh_lat_table:0 	12359953 	1415586 	263708 	40512 	2141 	22 	0 	0 	0 	0 	0 	0 	0 	0 	0 	0 	0 	0 	0 	0 	0 	0 	0 	
mf_lat_pw_table:0 	0 	0 	0 	0 	0 	0 	4 	2649 	2 	0 	0 	0 	0 	0 	0 	0 	0 	0 	0 	0 	0 	0 	0 	0 	0 	0 	0 	0 	0 	0 	0 	
maximum concurrent accesses to same row:
dram[0]:        16        13        14        12        13        15        11        12        13        12        41        40        14        22        12        22 
dram[1]:        16        15        15        15        12        11         9        10        12        14        40        40        26        18        29        13 
dram[2]:        16        13        15        14        11        13        12        12        11        12        33        36        30        31        16        14 
dram[3]:        14        18        15        12        12        14        10        13        21        11        34        36        38        38        17        20 
dram[4]:        13        12        18        12        11        12        13        18        13        13        39        39        26        17        16        20 
dram[5]:        14        14        13        15        12        15        15        12        12        11        40        39        23        15        14        14 
dram[6]:        11        14        12        14        12        11        14        14        16        11        40        34        15        27        13        18 
dram[7]:        15        14        13        12        14        13        12        14         9        13        40        31        18        22        14        11 
dram[8]:        13        10        11        13        16        11        15        15        10        11        31        32        13        18        15        11 
dram[9]:        22        17        14        14        16        11        14        12        14        16        30        32        19        16        20        23 
dram[10]:        14        13        13        14        18        14        11        12        11        16        35        40        15        20        25        15 
dram[11]:        15        11        12        12        12        13        14        14        13        13        42        42        19        17        19        11 
maximum service time to same row:
dram[0]:     78830     76167     72389     74022     75549     85871     55927     48723     71282     71865     42885     40726     68739     38277     51865     65841 
dram[1]:     71751     32160     46201     78050     86963     56625     92186     74550     42267     32396     33746     35783     62307     47334     56756     82142 
dram[2]:     68202     68509     96934     46598    120850     35189     62383     42943     45592     88207     55061     38826    101506     27955     89099     65674 
dram[3]:     40232     62356     50898     53643     63321     57864     50167     66141     34524     43543     51118    162445     58298     73340     40816     66512 
dram[4]:     62789     82273     57958     77065    100636     65050     94341     48159     71119     36352     67983     55801     65749     68075     50774     30030 
dram[5]:     57547     46162    126808     92076     41714    164511     52059     81100     69331     68898     81113     31902     91959     56659     56884     53916 
dram[6]:     43659     64710     70393     74780     69178     40864     57962     56876     57194     97974     56656     84917     36928     73031    111894     29222 
dram[7]:     93313    109137     91026     82695     67805     59057     53542     43635     59997     53141     63876    114370    106084     63856     61460     37074 
dram[8]:     86994     41223     35230     47432     34965     58010     43599     54731     62765     76485     45711     35195     37075     61625     88864     77026 
dram[9]:     50512     47120     30241     72492     50590     53993     46280    102930     50252     51047     53816     74834     67004     89184     46379     78560 
dram[10]:     45214     64553    100291     55197     36650     82460     49967     75468     63134     48735     84416     83756     80908     37494     96576     51354 
dram[11]:     92426     64596     74290     47890    121748     41408    105294     81912     30012     79973     88582     63491     49042     42889     47634     82173 
average row accesses per activate:
dram[0]:  1.398457  1.419778  1.393535  1.398453  1.405170  1.412725  1.389913  1.396114  1.415787  1.430188  1.431283  1.433540  1.438750  1.438622  1.394506  1.391666 
dram[1]:  1.398498  1.408048  1.367607  1.403590  1.386257  1.387287  1.379443  1.374772  1.399911  1.413444  1.393030  1.421615  1.421191  1.409297  1.382865  1.388210 
dram[2]:  1.394779  1.397106  1.384618  1.382491  1.400897  1.398151  1.386651  1.400042  1.409820  1.390455  1.421210  1.405794  1.433593  1.427073  1.383337  1.391164 
dram[3]:  1.387225  1.401121  1.389725  1.381962  1.388339  1.390630  1.384615  1.378170  1.390367  1.401380  1.400329  1.396873  1.403719  1.413433  1.384178  1.365985 
dram[4]:  1.383494  1.386096  1.372584  1.376381  1.380954  1.383821  1.385063  1.369144  1.393304  1.399870  1.419054  1.401590  1.414753  1.410013  1.382130  1.370802 
dram[5]:  1.397252  1.381738  1.384972  1.392336  1.408626  1.404142  1.398331  1.392161  1.406151  1.406362  1.406956  1.419178  1.434333  1.431348  1.384153  1.383114 
dram[6]:  1.371118  1.408073  1.366004  1.389951  1.401190  1.384963  1.383061  1.397965  1.396726  1.420118  1.407196  1.418562  1.424076  1.422810  1.380323  1.377808 
dram[7]:  1.404537  1.394349  1.383632  1.388581  1.402647  1.413734  1.385945  1.383459  1.413670  1.404965  1.438105  1.424166  1.431296  1.441824  1.388211  1.380568 
dram[8]:  1.404225  1.417551  1.385308  1.393208  1.401422  1.400944  1.376408  1.394146  1.407901  1.428752  1.423004  1.426393  1.420290  1.428815  1.373469  1.389604 
dram[9]:  1.396900  1.384848  1.376897  1.365917  1.396837  1.373592  1.392857  1.369938  1.418404  1.403050  1.405559  1.382378  1.431448  1.415760  1.378799  1.375075 
dram[10]:  1.401199  1.398633  1.383836  1.401048  1.386519  1.396751  1.385765  1.385573  1.416469  1.412259  1.437734  1.417072  1.425443  1.427371  1.377941  1.385855 
dram[11]:  1.381217  1.399408  1.368828  1.374777  1.401932  1.374107  1.374311  1.379309  1.383621  1.395587  1.394190  1.411562  1.431646  1.411609  1.377307  1.369923 
average row locality = 7821829/5592606 = 1.398602
number of total memory accesses made:
dram[0]:         0         0         0         0         0         0         0         0         0         0         0         0         0         0         0         0 
dram[1]:         0         0         0         0         0         0         0         0         0         0         0         0         0         0         0         0 
dram[2]:         0         0         0         0         0         0         0         0         0         0         0         0         0         0         0         0 
dram[3]:         0         0         0         0         0         0         0         0         0         0         0         0         0         0         0         0 
dram[4]:         0         0         0         0         0         0         0         0         0         0         0         0         0         0         0         0 
dram[5]:         0         0         0         0         0         0         0         0         0         0         0         0         0         0         0         0 
dram[6]:         0         0         0         0         0         0         0         0         0         0         0         0         0         0         0         0 
dram[7]:         0         0         0         0         0         0         0         0         0         0         0         0         0         0         0         0 
dram[8]:         0         0         0         0         0         0         0         0         0         0         0         0         0         0         0         0 
dram[9]:         0         0         0         0         0         0         0         0         0         0         0         0         0         0         0         0 
dram[10]:         0         0         0         0         0         0         0         0         0         0         0         0         0         0         0         0 
dram[11]:         0         0         0         0         0         0         0         0         0         0         0         0         0         0         0         0 
total accesses: 0
min_bank_accesses = 0!
min_chip_accesses = 0!
number of total read accesses:
dram[0]:     38193     38958     37540     38194     38804     38897     37311     37911     38931     39842     40004     39977     40126     40615     38579     38414 
dram[1]:     38926     38208     37046     38356     37826     37932     37165     37005     38655     39504     38273     39974     40305     39624     37588     37768 
dram[2]:     37687     38428     37519     37473     38989     37953     37547     37529     38708     38207     40013     39106     40728     40617     38160     38361 
dram[3]:     37869     38512     37969     37497     37461     37696     37651     37371     38630     38906     39280     39221     39432     39661     38261     37268 
dram[4]:     38149     37973     36832     37291     37932     37796     37512     36591     38655     38582     39481     39229     40065     39730     37708     37428 
dram[5]:     38144     37927     37586     37252     38873     38755     38052     37025     38493     38907     38862     39888     40544     40528     37894     37695 
dram[6]:     37251     39112     36934     38047     38005     37643     37254     38429     38627     39844     38490     40134     40245     39940     37411     37593 
dram[7]:     39087     38132     37513     37721     38389     39016     37370     37247     39751     38548     40708     38787     40632     40496     37685     37881 
dram[8]:     38486     38761     37826     38695     37936     38103     37180     37724     38898     39392     39475     40454     39812     40389     37773     38337 
dram[9]:     38974     37989     37091     36668     38731     37346     37418     36697     39979     38438     39872     37561     40812     40061     37543     37066 
dram[10]:     38648     38285     37483     37872     37185     38148     37565     37337     39476     39105     40320     39576     40175     40279     37924     37732 
dram[11]:     38130     38400     37152     37177     38485     36968     36668     37338     37898     38133     38646     38989     40261     39794     37620     37881 
total dram reads = 7385599
bank skew: 40812/36591 = 1.12
chip skew: 622296/609540 = 1.02
number of total write accesses:
dram[0]:      3290      3286      3325      3193      3389      3271      3374      3291      3462      3434      3542      3465      3644      3570      3330      3333 
dram[1]:      3281      3283      3196      3287      3306      3261      3347      3274      3471      3519      3522      3530      3620      3539      3262      3389 
dram[2]:      3240      3314      3217      3258      3296      3346      3309      3377      3455      3441      3477      3548      3571      3522      3262      3314 
dram[3]:      3252      3268      3253      3257      3352      3282      3349      3284      3375      3434      3577      3485      3675      3611      3258      3200 
dram[4]:      3242      3287      3204      3276      3273      3333      3337      3365      3397      3387      3585      3523      3522      3512      3295      3237 
dram[5]:      3274      3234      3200      3286      3330      3350      3284      3341      3447      3422      3479      3511      3607      3582      3257      3258 
dram[6]:      3253      3299      3222      3261      3340      3290      3359      3367      3444      3492      3545      3496      3595      3563      3261      3263 
dram[7]:      3273      3212      3183      3247      3291      3294      3277      3318      3497      3464      3497      3580      3622      3606      3258      3258 
dram[8]:      3291      3290      3238      3299      3362      3299      3267      3304      3373      3463      3588      3485      3570      3562      3232      3272 
dram[9]:      3351      3290      3281      3222      3354      3353      3328      3214      3537      3401      3647      3501      3657      3520      3313      3234 
dram[10]:      3301      3284      3180      3343      3299      3311      3240      3244      3455      3499      3544      3530      3571      3629      3209      3226 
dram[11]:      3269      3313      3231      3209      3388      3341      3307      3249      3435      3406      3546      3570      3585      3559      3248      3314 
total dram writes = 647642
bank skew: 3675/3180 = 1.16
chip skew: 54203/53775 = 1.01
average mf latency per bank:
dram[0]:        689       716       692       713       698       703       695       706       733       745       814       799       761       788       723       719
dram[1]:        688       719       682       686       679       711       681       728       753       747       805       835       748       764       727       698
dram[2]:        710       688       703       707       699       686       681       702       723       723       787       780       772       787       723       718
dram[3]:        724       693       686       678       671       686       685       675       757       729       782       788       717       731       731       705
dram[4]:        675       700       738       675       686       671       666       662       707       751       780       761       763       748      2545       729
dram[5]:        687       697       695       684       673       683       694       668       724       699       808       765       759       778       736       720
dram[6]:        693       711       714       693       717       681       671       674       744       760       813       782       759       755       735       714
dram[7]:        704       729       728       696       734       699       707       675       722       737       820       795       749       779       722       738
dram[8]:        684       697       697       686       674       713       696       698       756       739       808       844       775       780       734       725
dram[9]:        681       692       727       663       681       661       664       713       707       755       763       777       735       757       710       734
dram[10]:        685       679       734       686       683       688       711       684       736       715       812       823       754       748       729       753
dram[11]:        680       663       691       677       660       660       696       702       740       749       747       779       767       737       712       695
maximum mf latency per bank:
dram[0]:       2342      3404      2318      3198      3226      2899      2883      2306      3129      4360      5062      2721      3049      2639      2775      2587
dram[1]:       2171      2388      2143      2385      2630      3259      2260      2625      3185      2100      4214      2521      3498      2210      3548      2854
dram[2]:       2866      2280      4223      2993      2296      2407      2515      5377      3002      3680      2942      3339      3187      2608      2930      2287
dram[3]:       2110      2359      4366      2497      3486      3071      3616      2602      4579      2567      2869      2626      2270      2471      2908      2330
dram[4]:       3528      2094      2233      3170      2509      2790      3304      2555      2756      3040      4225      2519      2965      2038      2250      2757
dram[5]:       2234      2301      2378      1991      2669      3174      3803      3238      2311      2338      2882      3589      3899      3166      3844      2360
dram[6]:       3072      2666      1934      2381      3651      3030      2891      3006      4255      2768      4304      3486      2676      2637      2595      2368
dram[7]:       2746      2935      2302      2313      3949      2967      3111      2455      2821      2964      3524      2958      4224      4871      2679      2169
dram[8]:       2229      4456      2081      2777      3949      3344      2646      2874      2785      3375      3465      4206      3418      3714      2639      2218
dram[9]:       2470      2483      2184      3164      3338      2851      2828      3352      2739      2694      2238      2100      3038      2300      2382      3264
dram[10]:       2676      2288      2922      3146      3251      2813      2623      1892      2422      2589      3148      2252      3103      3646      2565      2587
dram[11]:       2584      2809      2226      2350      3034      2854      2189      2124      3174      2258      2789      2671      2591      3531      2383      2033

Number of Memory Banks Accessed per Memory Operation per Warp (from 0):
0	0	0	0	0	0	0	0	0	0	0	0	0	0	0	0	0	0	0	0	0	0	0	0	0	0	0	0	0	0	0	0	0	0	0	0	0	0	0	0	0	0	0	0	0	0	0	0	0	0	0	0	0	0	0	0	0	0	0	0	0	0	0	0	0	0	0	0	0	0	0	0	0	0	0	0	0	0	0	0	0	0	0	0	0	0	0	0	0	0	0	0	0	0	0	0	0	0	0	0	0	0	0	0	0	0	0	0	0	0	0	0	0	0	0	0	0	0	0	0	0	0	0	0	0	0	0	0	0	0	0	0	0	0	0	0	0	0	0	0	0	0	0	0	0	0	0	0	0	0	0	0	0	0	0	0	0	0	0	0	0	0	0	0	0	0	0	0	0	0	0	0	0	0	0	0	0	0	0	0	0	0	0	0	0	0	0	0	0	0	0	0	
Average # of Memory Banks Accessed per Memory Operation per Warp=-nan

position of mrq chosen
0	0	0	0	0	0	0	0	0	0	0	0	0	0	0	0	0	0	0	0	0	0	0	0	0	0	0	0	0	0	0	0	0	0	0	0	0	0	0	0	0	0	0	0	0	0	0	0	0	0	0	0	0	0	0	0	0	0	0	0	0	0	0	0	

average position of mrq chosen = -nan
Memory Partition 0: 
Cache L2_bank_000:
MSHR contents

Cache L2_bank_001:
MSHR contents

In Dram Latency Queue (total = 0): 
DRAM[0]: 16 bks, busW=2 BL=16 CL=24, tRRD=12 tCCD=4, tRCD=24 tRAS=55 tRP=24 tRC=78
n_cmd=6822288 n_nop=5424769 n_act=466653 n_pre=466637 n_ref_event=0 n_req=658902 n_rd=622296 n_rd_L2_A=0 n_write=0 n_wr_bk=54199 bw_util=0.3966
n_activity=6023117 dram_eff=0.4493
bk0: 38193a 2184263i bk1: 38958a 2117048i bk2: 37540a 2204697i bk3: 38194a 2206221i bk4: 38804a 2084987i bk5: 38897a 2122929i bk6: 37311a 2206233i bk7: 37911a 2181069i bk8: 38931a 2050119i bk9: 39842a 1983318i bk10: 40004a 1940545i bk11: 39977a 1964706i bk12: 40126a 1934501i bk13: 40615a 1909571i bk14: 38579a 2097405i bk15: 38414a 2114802i 

------------------------------------------------------------------------

Row_Buffer_Locality = 0.291775
Row_Buffer_Locality_read = 0.294431
Row_Buffer_Locality_write = 0.246626
Bank_Level_Parallism = 12.957804
Bank_Level_Parallism_Col = 3.410961
Bank_Level_Parallism_Ready = 1.297617
write_to_read_ratio_blp_rw_average = 0.239642
GrpLevelPara = 2.545344 

BW Util details:
bwutil = 0.396638 
total_CMD = 6822288 
util_bw = 2705980 
Wasted_Col = 3104968 
Wasted_Row = 101154 
Idle = 910186 

BW Util Bottlenecks: 
RCDc_limit = 5725337 
RCDWRc_limit = 176770 
WTRc_limit = 1223127 
RTWc_limit = 3100812 
CCDLc_limit = 865173 
rwq = 0 
CCDLc_limit_alone = 622349 
WTRc_limit_alone = 1178184 
RTWc_limit_alone = 2902931 

Commands details: 
total_CMD = 6822288 
n_nop = 5424769 
Read = 622296 
Write = 0 
L2_Alloc = 0 
L2_WB = 54199 
n_act = 466653 
n_pre = 466637 
n_ref = 0 
n_req = 658902 
total_req = 676495 

Dual Bus Interface Util: 
issued_total_row = 933290 
issued_total_col = 676495 
Row_Bus_Util =  0.136800 
CoL_Bus_Util = 0.099160 
Either_Row_CoL_Bus_Util = 0.204846 
Issued_on_Two_Bus_Simul_Util = 0.031114 
issued_two_Eff = 0.151888 
queue_avg = 41.331814 


dram_util_bins: 0 0 0 0 0 0 0 0 0 0
dram_eff_bins: 0 0 0 0 0 0 0 0 0 0
mrqq: max=64 avg=41.3318
Memory Partition 1: 
Cache L2_bank_002:
MSHR contents

Cache L2_bank_003:
MSHR contents

In Dram Latency Queue (total = 0): 
DRAM[1]: 16 bks, busW=2 BL=16 CL=24, tRRD=12 tCCD=4, tRCD=24 tRAS=55 tRP=24 tRC=78
n_cmd=6822288 n_nop=5437112 n_act=466031 n_pre=466015 n_ref_event=0 n_req=650651 n_rd=614155 n_rd_L2_A=0 n_write=0 n_wr_bk=54087 bw_util=0.3918
n_activity=6008248 dram_eff=0.4449
bk0: 38926a 2130948i bk1: 38208a 2181296i bk2: 37046a 2305938i bk3: 38356a 2183306i bk4: 37826a 2195570i bk5: 37932a 2177479i bk6: 37165a 2239023i bk7: 37005a 2286797i bk8: 38655a 2113073i bk9: 39504a 2072707i bk10: 38273a 2097517i bk11: 39974a 2006371i bk12: 40305a 1954467i bk13: 39624a 2034376i bk14: 37588a 2192749i bk15: 37768a 2214597i 

------------------------------------------------------------------------

Row_Buffer_Locality = 0.283750
Row_Buffer_Locality_read = 0.286861
Row_Buffer_Locality_write = 0.231395
Bank_Level_Parallism = 12.794080
Bank_Level_Parallism_Col = 1.000000
Bank_Level_Parallism_Ready = 1.287749
write_to_read_ratio_blp_rw_average = 0.000000
GrpLevelPara = 0.000000 

BW Util details:
bwutil = 0.391799 
total_CMD = 6822288 
util_bw = 2672968 
Wasted_Col = 3126953 
Wasted_Row = 101905 
Idle = 920462 

BW Util Bottlenecks: 
RCDc_limit = 5761854 
RCDWRc_limit = 183014 
WTRc_limit = 1224894 
RTWc_limit = 2977984 
CCDLc_limit = 846020 
rwq = 0 
CCDLc_limit_alone = 612814 
WTRc_limit_alone = 1180644 
RTWc_limit_alone = 2789028 

Commands details: 
total_CMD = 6822288 
n_nop = 5437112 
Read = 614155 
Write = 0 
L2_Alloc = 0 
L2_WB = 54087 
n_act = 466031 
n_pre = 466015 
n_ref = 0 
n_req = 650651 
total_req = 668242 

Dual Bus Interface Util: 
issued_total_row = 932046 
issued_total_col = 668242 
Row_Bus_Util =  0.136618 
CoL_Bus_Util = 0.097950 
Either_Row_CoL_Bus_Util = 0.203037 
Issued_on_Two_Bus_Simul_Util = 0.031531 
issued_two_Eff = 0.155296 
queue_avg = 38.664288 


dram_util_bins: 0 0 0 0 0 0 0 0 0 0
dram_eff_bins: 0 0 0 0 0 0 0 0 0 0
mrqq: max=64 avg=38.6643
Memory Partition 2: 
Cache L2_bank_004:
MSHR contents

Cache L2_bank_005:
MSHR contents

In Dram Latency Queue (total = 0): 
DRAM[2]: 16 bks, busW=2 BL=16 CL=24, tRRD=12 tCCD=4, tRCD=24 tRAS=55 tRP=24 tRC=78
n_cmd=6822288 n_nop=5433040 n_act=466365 n_pre=466349 n_ref_event=0 n_req=653218 n_rd=617025 n_rd_L2_A=0 n_write=0 n_wr_bk=53947 bw_util=0.3934
n_activity=6013872 dram_eff=0.4463
bk0: 37687a 2233046i bk1: 38428a 2168439i bk2: 37519a 2252601i bk3: 37473a 2215243i bk4: 38989a 2130196i bk5: 37953a 2190366i bk6: 37547a 2219740i bk7: 37529a 2213104i bk8: 38708a 2081598i bk9: 38207a 2130976i bk10: 40013a 1993204i bk11: 39106a 2017350i bk12: 40728a 1928879i bk13: 40617a 1934619i bk14: 38160a 2150960i bk15: 38361a 2184464i 

------------------------------------------------------------------------

Row_Buffer_Locality = 0.286053
Row_Buffer_Locality_read = 0.288977
Row_Buffer_Locality_write = 0.236206
Bank_Level_Parallism = 12.844992
Bank_Level_Parallism_Col = 3.362527
Bank_Level_Parallism_Ready = 1.288394
write_to_read_ratio_blp_rw_average = 0.234580
GrpLevelPara = 2.527729 

BW Util details:
bwutil = 0.393400 
total_CMD = 6822288 
util_bw = 2683888 
Wasted_Col = 3119913 
Wasted_Row = 101696 
Idle = 916791 

BW Util Bottlenecks: 
RCDc_limit = 5754255 
RCDWRc_limit = 179370 
WTRc_limit = 1215840 
RTWc_limit = 3014002 
CCDLc_limit = 850078 
rwq = 0 
CCDLc_limit_alone = 614709 
WTRc_limit_alone = 1172290 
RTWc_limit_alone = 2822183 

Commands details: 
total_CMD = 6822288 
n_nop = 5433040 
Read = 617025 
Write = 0 
L2_Alloc = 0 
L2_WB = 53947 
n_act = 466365 
n_pre = 466349 
n_ref = 0 
n_req = 653218 
total_req = 670972 

Dual Bus Interface Util: 
issued_total_row = 932714 
issued_total_col = 670972 
Row_Bus_Util =  0.136716 
CoL_Bus_Util = 0.098350 
Either_Row_CoL_Bus_Util = 0.203634 
Issued_on_Two_Bus_Simul_Util = 0.031432 
issued_two_Eff = 0.154355 
queue_avg = 39.674698 


dram_util_bins: 0 0 0 0 0 0 0 0 0 0
dram_eff_bins: 0 0 0 0 0 0 0 0 0 0
mrqq: max=64 avg=39.6747
Memory Partition 3: 
Cache L2_bank_006:
MSHR contents

Cache L2_bank_007:
MSHR contents

In Dram Latency Queue (total = 0): 
DRAM[3]: 16 bks, busW=2 BL=16 CL=24, tRRD=12 tCCD=4, tRCD=24 tRAS=55 tRP=24 tRC=78
n_cmd=6822288 n_nop=5438001 n_act=466513 n_pre=466497 n_ref_event=0 n_req=649034 n_rd=612685 n_rd_L2_A=0 n_write=0 n_wr_bk=53912 bw_util=0.3908
n_activity=6028102 dram_eff=0.4423
bk0: 37869a 2244010i bk1: 38512a 2188019i bk2: 37969a 2234013i bk3: 37497a 2267760i bk4: 37461a 2273255i bk5: 37696a 2240567i bk6: 37651a 2220387i bk7: 37371a 2282661i bk8: 38630a 2143021i bk9: 38906a 2128913i bk10: 39280a 2043041i bk11: 39221a 2070081i bk12: 39432a 2030708i bk13: 39661a 1998875i bk14: 38261a 2212042i bk15: 37268a 2259228i 

------------------------------------------------------------------------

Row_Buffer_Locality = 0.281223
Row_Buffer_Locality_read = 0.284172
Row_Buffer_Locality_write = 0.231506
Bank_Level_Parallism = 12.679638
Bank_Level_Parallism_Col = 3.351436
Bank_Level_Parallism_Ready = 1.287793
write_to_read_ratio_blp_rw_average = 0.235265
GrpLevelPara = 2.517145 

BW Util details:
bwutil = 0.390835 
total_CMD = 6822288 
util_bw = 2666388 
Wasted_Col = 3146854 
Wasted_Row = 106340 
Idle = 902706 

BW Util Bottlenecks: 
RCDc_limit = 5792294 
RCDWRc_limit = 182481 
WTRc_limit = 1228788 
RTWc_limit = 3019696 
CCDLc_limit = 845084 
rwq = 0 
CCDLc_limit_alone = 609560 
WTRc_limit_alone = 1184236 
RTWc_limit_alone = 2828724 

Commands details: 
total_CMD = 6822288 
n_nop = 5438001 
Read = 612685 
Write = 0 
L2_Alloc = 0 
L2_WB = 53912 
n_act = 466513 
n_pre = 466497 
n_ref = 0 
n_req = 649034 
total_req = 666597 

Dual Bus Interface Util: 
issued_total_row = 933010 
issued_total_col = 666597 
Row_Bus_Util =  0.136759 
CoL_Bus_Util = 0.097709 
Either_Row_CoL_Bus_Util = 0.202907 
Issued_on_Two_Bus_Simul_Util = 0.031561 
issued_two_Eff = 0.155546 
queue_avg = 38.223797 


dram_util_bins: 0 0 0 0 0 0 0 0 0 0
dram_eff_bins: 0 0 0 0 0 0 0 0 0 0
mrqq: max=64 avg=38.2238
Memory Partition 4: 
Cache L2_bank_008:
MSHR contents

Cache L2_bank_009:
MSHR contents

In Dram Latency Queue (total = 0): 
DRAM[4]: 16 bks, busW=2 BL=16 CL=24, tRRD=12 tCCD=4, tRCD=24 tRAS=55 tRP=24 tRC=78
n_cmd=6822288 n_nop=5439737 n_act=465735 n_pre=465719 n_ref_event=0 n_req=647151 n_rd=610954 n_rd_L2_A=0 n_write=0 n_wr_bk=53775 bw_util=0.3897
n_activity=6006100 dram_eff=0.4427
bk0: 38149a 2224717i bk1: 37973a 2262784i bk2: 36832a 2336013i bk3: 37291a 2269237i bk4: 37932a 2252650i bk5: 37796a 2258769i bk6: 37512a 2274169i bk7: 36591a 2348254i bk8: 38655a 2150567i bk9: 38582a 2140558i bk10: 39481a 2033607i bk11: 39229a 2068360i bk12: 40065a 2021126i bk13: 39730a 2063677i bk14: 37708a 2251650i bk15: 37428a 2281775i 

------------------------------------------------------------------------

Row_Buffer_Locality = 0.280333
Row_Buffer_Locality_read = 0.283630
Row_Buffer_Locality_write = 0.224687
Bank_Level_Parallism = 12.650698
Bank_Level_Parallism_Col = 3.312414
Bank_Level_Parallism_Ready = 1.279214
write_to_read_ratio_blp_rw_average = 0.228551
GrpLevelPara = 2.501590 

BW Util details:
bwutil = 0.389740 
total_CMD = 6822288 
util_bw = 2658916 
Wasted_Col = 3140806 
Wasted_Row = 101041 
Idle = 921525 

BW Util Bottlenecks: 
RCDc_limit = 5784021 
RCDWRc_limit = 183716 
WTRc_limit = 1224982 
RTWc_limit = 2915609 
CCDLc_limit = 837106 
rwq = 0 
CCDLc_limit_alone = 608986 
WTRc_limit_alone = 1180397 
RTWc_limit_alone = 2732074 

Commands details: 
total_CMD = 6822288 
n_nop = 5439737 
Read = 610954 
Write = 0 
L2_Alloc = 0 
L2_WB = 53775 
n_act = 465735 
n_pre = 465719 
n_ref = 0 
n_req = 647151 
total_req = 664729 

Dual Bus Interface Util: 
issued_total_row = 931454 
issued_total_col = 664729 
Row_Bus_Util =  0.136531 
CoL_Bus_Util = 0.097435 
Either_Row_CoL_Bus_Util = 0.202652 
Issued_on_Two_Bus_Simul_Util = 0.031314 
issued_two_Eff = 0.154520 
queue_avg = 37.266739 


dram_util_bins: 0 0 0 0 0 0 0 0 0 0
dram_eff_bins: 0 0 0 0 0 0 0 0 0 0
mrqq: max=64 avg=37.2667
Memory Partition 5: 
Cache L2_bank_010:
MSHR contents

Cache L2_bank_011:
MSHR contents

In Dram Latency Queue (total = 0): 
DRAM[5]: 16 bks, busW=2 BL=16 CL=24, tRRD=12 tCCD=4, tRCD=24 tRAS=55 tRP=24 tRC=78
n_cmd=6822288 n_nop=5435942 n_act=465438 n_pre=465422 n_ref_event=0 n_req=652621 n_rd=616425 n_rd_L2_A=0 n_write=0 n_wr_bk=53862 bw_util=0.393
n_activity=5998587 dram_eff=0.447
bk0: 38144a 2186545i bk1: 37927a 2240170i bk2: 37586a 2254390i bk3: 37252a 2266593i bk4: 38873a 2124890i bk5: 38755a 2146509i bk6: 38052a 2174418i bk7: 37025a 2272593i bk8: 38493a 2125776i bk9: 38907a 2086787i bk10: 38862a 2056118i bk11: 39888a 1979607i bk12: 40544a 1952756i bk13: 40528a 1942930i bk14: 37894a 2174753i bk15: 37695a 2194629i 

------------------------------------------------------------------------

Row_Buffer_Locality = 0.286820
Row_Buffer_Locality_read = 0.289706
Row_Buffer_Locality_write = 0.237678
Bank_Level_Parallism = 12.846129
Bank_Level_Parallism_Col = 3.379369
Bank_Level_Parallism_Ready = 1.293841
write_to_read_ratio_blp_rw_average = 0.235309
GrpLevelPara = 2.528884 

[...]
bwutil = 0.392286 
total_CMD = 37161573 
util_bw = 14577964 
Wasted_Col = 17234367 
Wasted_Row = 495152 
Idle = 4854090 

BW Util Bottlenecks: 
RCDc_limit = 33233960 
RCDWRc_limit = 203586 
WTRc_limit = 1433951 
RTWc_limit = 3812227 
CCDLc_limit = 4242181 
rwq = 0 
CCDLc_limit_alone = 3942612 
WTRc_limit_alone = 1377884 
RTWc_limit_alone = 3568725 

Commands details: 
total_CMD = 37161573 
n_nop = 29869711 
Read = 3569835 
Write = 0 
L2_Alloc = 0 
L2_WB = 74656 
n_act = 2545822 
n_pre = 2545806 
n_ref = 0 
n_req = 3612319 
total_req = 3644491 

Dual Bus Interface Util: 
issued_total_row = 5091628 
issued_total_col = 3644491 
Row_Bus_Util =  0.137013 
CoL_Bus_Util = 0.098072 
Either_Row_CoL_Bus_Util = 0.196220 
Issued_on_Two_Bus_Simul_Util = 0.038864 
issued_two_Eff = 0.198064 
queue_avg = 38.361206 


dram_util_bins: 0 0 0 0 0 0 0 0 0 0
dram_eff_bins: 0 0 0 0 0 0 0 0 0 0
mrqq: max=64 avg=38.3612
Memory Partition 7: 
Cache L2_bank_014:
MSHR contents

Cache L2_bank_015:
MSHR contents

In Dram Latency Queue (total = 0): 
DRAM[7]: 16 bks, busW=2 BL=16 CL=24, tRRD=12 tCCD=4, tRCD=24 tRAS=55 tRP=24 tRC=78
n_cmd=37161573 n_nop=29858956 n_act=2542953 n_pre=2542937 n_ref_event=0 n_req=3628795 n_rd=3586344 n_rd_L2_A=0 n_write=0 n_wr_bk=74532 bw_util=0.394
n_activity=32853365 dram_eff=0.4457
bk0: 223828a 11304445i bk1: 220997a 11531463i bk2: 214843a 12042747i bk3: 218131a 11809745i bk4: 221148a 11564046i bk5: 226887a 11073633i bk6: 214326a 12052649i bk7: 216614a 11798299i bk8: 228851a 10711815i bk9: 224196a 10913041i bk10: 237232a 10044435i bk11: 228177a 10565438i bk12: 236817a 10099777i bk13: 239270a 10007414i bk14: 216250a 11785461i bk15: 218777a 11626919i 

------------------------------------------------------------------------

Row_Buffer_Locality = 0.299230
Row_Buffer_Locality_read = 0.299933
Row_Buffer_Locality_write = 0.239806
Bank_Level_Parallism = 13.021847
Bank_Level_Parallism_Col = 2.475394
Bank_Level_Parallism_Ready = 1.108624
write_to_read_ratio_blp_rw_average = 0.058651
GrpLevelPara = 2.102272 

BW Util details:
bwutil = 0.394050 
total_CMD = 37161573 
util_bw = 14643504 
Wasted_Col = 17129039 
Wasted_Row = 491114 
Idle = 4897916 

BW Util Bottlenecks: 
RCDc_limit = 33028733 
RCDWRc_limit = 202893 
WTRc_limit = 1430321 
RTWc_limit = 3870873 
CCDLc_limit = 4274951 
rwq = 0 
CCDLc_limit_alone = 3969698 
WTRc_limit_alone = 1374591 
RTWc_limit_alone = 3621350 

Commands details: 
total_CMD = 37161573 
n_nop = 29858956 
Read = 3586344 
Write = 0 
L2_Alloc = 0 
L2_WB = 74532 
n_act = 2542953 
n_pre = 2542937 
n_ref = 0 
n_req = 3628795 
total_req = 3660876 

Dual Bus Interface Util: 
issued_total_row = 5085890 
issued_total_col = 3660876 
Row_Bus_Util =  0.136859 
CoL_Bus_Util = 0.098512 
Either_Row_CoL_Bus_Util = 0.196510 
Issued_on_Two_Bus_Simul_Util = 0.038861 
issued_two_Eff = 0.197758 
queue_avg = 39.685196 


dram_util_bins: 0 0 0 0 0 0 0 0 0 0
dram_eff_bins: 0 0 0 0 0 0 0 0 0 0
mrqq: max=64 avg=39.6852
Memory Partition 8: 
Cache L2_bank_016:
MSHR contents

Cache L2_bank_017:
MSHR contents

In Dram Latency Queue (total = 0): 
DRAM[8]: 16 bks, busW=2 BL=16 CL=24, tRRD=12 tCCD=4, tRCD=24 tRAS=55 tRP=24 tRC=78
n_cmd=37161573 n_nop=29871214 n_act=2544025 n_pre=2544009 n_ref_event=0 n_req=3619956 n_rd=3577633 n_rd_L2_A=0 n_write=0 n_wr_bk=74513 bw_util=0.3931
n_activity=32858011 dram_eff=0.4446
bk0: 220426a 11648952i bk1: 221484a 11553317i bk2: 215924a 12095191i bk3: 221053a 11663927i bk4: 218644a 11802375i bk5: 219940a 11587362i bk6: 213890a 12078166i bk7: 218001a 11746874i bk8: 227082a 10803797i bk9: 227364a 10816691i bk10: 232025a 10354166i bk11: 237371a 10080600i bk12: 230852a 10566476i bk13: 234657a 10355448i bk14: 217544a 11766573i bk15: 221376a 11471653i 

------------------------------------------------------------------------

Row_Buffer_Locality = 0.297223
Row_Buffer_Locality_read = 0.297873
Row_Buffer_Locality_write = 0.242256
Bank_Level_Parallism = 12.973061
Bank_Level_Parallism_Col = 2.470526
Bank_Level_Parallism_Ready = 1.108478
write_to_read_ratio_blp_rw_average = 0.057300
GrpLevelPara = 2.098000 

BW Util details:
bwutil = 0.393110 
total_CMD = 37161573 
util_bw = 14608584 
Wasted_Col = 17172255 
Wasted_Row = 488712 
Idle = 4892022 

BW Util Bottlenecks: 
RCDc_limit = 33120495 
RCDWRc_limit = 203228 
WTRc_limit = 1422007 
RTWc_limit = 3828550 
CCDLc_limit = 4263132 
rwq = 0 
CCDLc_limit_alone = 3962627 
WTRc_limit_alone = 1366521 
RTWc_limit_alone = 3583531 

Commands details: 
total_CMD = 37161573 
n_nop = 29871214 
Read = 3577633 
Write = 0 
L2_Alloc = 0 
L2_WB = 74513 
n_act = 2544025 
n_pre = 2544009 
n_ref = 0 
n_req = 3619956 
total_req = 3652146 

Dual Bus Interface Util: 
issued_total_row = 5088034 
issued_total_col = 3652146 
Row_Bus_Util =  0.136917 
CoL_Bus_Util = 0.098277 
Either_Row_CoL_Bus_Util = 0.196180 
Issued_on_Two_Bus_Simul_Util = 0.039014 
issued_two_Eff = 0.198868 
queue_avg = 38.985851 


dram_util_bins: 0 0 0 0 0 0 0 0 0 0
dram_eff_bins: 0 0 0 0 0 0 0 0 0 0
mrqq: max=64 avg=38.9859
Memory Partition 9: 
Cache L2_bank_018:
MSHR contents

Cache L2_bank_019:
MSHR contents

In Dram Latency Queue (total = 0): 
DRAM[9]: 16 bks, busW=2 BL=16 CL=24, tRRD=12 tCCD=4, tRCD=24 tRAS=55 tRP=24 tRC=78
n_cmd=37161573 n_nop=29876779 n_act=2545163 n_pre=2545147 n_ref_event=0 n_req=3603681 n_rd=3560977 n_rd_L2_A=0 n_write=0 n_wr_bk=74896 bw_util=0.3914
n_activity=32929338 dram_eff=0.4417
bk0: 224834a 11447066i bk1: 218309a 11915313i bk2: 215197a 12225328i bk3: 210861a 12568763i bk4: 225217a 11407551i bk5: 215885a 11980031i bk6: 217005a 11970508i bk7: 212244a 12254011i bk8: 232234a 10538767i bk9: 225645a 10933870i bk10: 235388a 10239721i bk11: 222625a 11084332i bk12: 239190a 10135775i bk13: 234568a 10358403i bk14: 216580a 11975204i bk15: 215195a 12028460i 

------------------------------------------------------------------------

Row_Buffer_Locality = 0.293733
Row_Buffer_Locality_read = 0.294404
Row_Buffer_Locality_write = 0.237753
Bank_Level_Parallism = 12.866593
Bank_Level_Parallism_Col = 2.460716
Bank_Level_Parallism_Ready = 1.107833
write_to_read_ratio_blp_rw_average = 0.057000
GrpLevelPara = 2.091972 

BW Util details:
bwutil = 0.391358 
total_CMD = 37161573 
util_bw = 14543492 
Wasted_Col = 17280218 
Wasted_Row = 506076 
Idle = 4831787 

BW Util Bottlenecks: 
RCDc_limit = 33297209 
RCDWRc_limit = 205582 
WTRc_limit = 1459248 
RTWc_limit = 3766990 
CCDLc_limit = 4216912 
rwq = 0 
CCDLc_limit_alone = 3919627 
WTRc_limit_alone = 1402380 
RTWc_limit_alone = 3526573 

Commands details: 
total_CMD = 37161573 
n_nop = 29876779 
Read = 3560977 
Write = 0 
L2_Alloc = 0 
L2_WB = 74896 
n_act = 2545163 
n_pre = 2545147 
n_ref = 0 
n_req = 3603681 
total_req = 3635873 

Dual Bus Interface Util: 
issued_total_row = 5090310 
issued_total_col = 3635873 
Row_Bus_Util =  0.136978 
CoL_Bus_Util = 0.097840 
Either_Row_CoL_Bus_Util = 0.196030 
Issued_on_Two_Bus_Simul_Util = 0.038787 
issued_two_Eff = 0.197863 
queue_avg = 38.081596 


dram_util_bins: 0 0 0 0 0 0 0 0 0 0
dram_eff_bins: 0 0 0 0 0 0 0 0 0 0
mrqq: max=64 avg=38.0816
Memory Partition 10: 
Cache L2_bank_020:
MSHR contents

Cache L2_bank_021:
MSHR contents

In Dram Latency Queue (total = 0): 
DRAM[10]: 16 bks, busW=2 BL=16 CL=24, tRRD=12 tCCD=4, tRCD=24 tRAS=55 tRP=24 tRC=78
n_cmd=37161573 n_nop=29879221 n_act=2541256 n_pre=2541240 n_ref_event=0 n_req=3609458 n_rd=3567032 n_rd_L2_A=0 n_write=0 n_wr_bk=74459 bw_util=0.392
n_activity=32816351 dram_eff=0.4439
bk0: 223507a 11567627i bk1: 219262a 11860428i bk2: 216535a 12086054i bk3: 216978a 12026483i bk4: 215348a 12174498i bk5: 219819a 11752755i bk6: 214925a 12077668i bk7: 214841a 12117743i bk8: 230294a 10772874i bk9: 225777a 10984302i bk10: 237666a 10136266i bk11: 230483a 10585273i bk12: 232924a 10498259i bk13: 233874a 10452051i bk14: 218922a 11708613i bk15: 215877a 12042925i 

------------------------------------------------------------------------

Row_Buffer_Locality = 0.295946
Row_Buffer_Locality_read = 0.296678
Row_Buffer_Locality_write = 0.234361
Bank_Level_Parallism = 12.907655
Bank_Level_Parallism_Col = 2.463116
Bank_Level_Parallism_Ready = 1.106821
write_to_read_ratio_blp_rw_average = 0.056405
GrpLevelPara = 2.094268 

BW Util details:
bwutil = 0.391963 
total_CMD = 37161573 
util_bw = 14565964 
Wasted_Col = 17183593 
Wasted_Row = 491159 
Idle = 4920857 

BW Util Bottlenecks: 
RCDc_limit = 33136403 
RCDWRc_limit = 204853 
WTRc_limit = 1435922 
RTWc_limit = 3746898 
CCDLc_limit = 4243430 
rwq = 0 
CCDLc_limit_alone = 3946527 
WTRc_limit_alone = 1380078 
RTWc_limit_alone = 3505839 

Commands details: 
total_CMD = 37161573 
n_nop = 29879221 
Read = 3567032 
Write = 0 
L2_Alloc = 0 
L2_WB = 74459 
n_act = 2541256 
n_pre = 2541240 
n_ref = 0 
n_req = 3609458 
total_req = 3641491 

Dual Bus Interface Util: 
issued_total_row = 5082496 
issued_total_col = 3641491 
Row_Bus_Util =  0.136768 
CoL_Bus_Util = 0.097991 
Either_Row_CoL_Bus_Util = 0.195965 
Issued_on_Two_Bus_Simul_Util = 0.038794 
issued_two_Eff = 0.197963 
queue_avg = 38.401627 


dram_util_bins: 0 0 0 0 0 0 0 0 0 0
dram_eff_bins: 0 0 0 0 0 0 0 0 0 0
mrqq: max=64 avg=38.4016
Memory Partition 11: 
Cache L2_bank_022:
MSHR contents

Cache L2_bank_023:
MSHR contents

In Dram Latency Queue (total = 0): 
DRAM[11]: 16 bks, busW=2 BL=16 CL=24, tRRD=12 tCCD=4, tRCD=24 tRAS=55 tRP=24 tRC=78
n_cmd=37161573 n_nop=29906785 n_act=2537280 n_pre=2537264 n_ref_event=0 n_req=3576533 n_rd=3534146 n_rd_L2_A=0 n_write=0 n_wr_bk=74539 bw_util=0.3884
n_activity=32798348 dram_eff=0.4401
bk0: 218254a 12046669i bk1: 222070a 11770165i bk2: 211911a 12577153i bk3: 214199a 12455167i bk4: 222114a 11781475i bk5: 216589a 12175737i bk6: 209594a 12797675i bk7: 217368a 12096739i bk8: 220873a 11582306i bk9: 224043a 11337902i bk10: 225614a 11062419i bk11: 229609a 10807252i bk12: 233899a 10646715i bk13: 232326a 10747621i bk14: 215900a 12064988i bk15: 219783a 11814304i 

------------------------------------------------------------------------

Row_Buffer_Locality = 0.290576
Row_Buffer_Locality_read = 0.291235
Row_Buffer_Locality_write = 0.235638
Bank_Level_Parallism = 12.765897
Bank_Level_Parallism_Col = 2.448955
Bank_Level_Parallism_Ready = 1.105215
write_to_read_ratio_blp_rw_average = 0.055435
GrpLevelPara = 2.086272 

BW Util details:
bwutil = 0.388432 
total_CMD = 37161573 
util_bw = 14434740 
Wasted_Col = 17281910 
Wasted_Row = 495271 
Idle = 4949652 

BW Util Bottlenecks: 
RCDc_limit = 33315387 
RCDWRc_limit = 205904 
WTRc_limit = 1444482 
RTWc_limit = 3660208 
CCDLc_limit = 4171325 
rwq = 0 
CCDLc_limit_alone = 3880622 
WTRc_limit_alone = 1388051 
RTWc_limit_alone = 3425936 

Commands details: 
total_CMD = 37161573 
n_nop = 29906785 
Read = 3534146 
Write = 0 
L2_Alloc = 0 
L2_WB = 74539 
n_act = 2537280 
n_pre = 2537264 
n_ref = 0 
n_req = 3576533 
total_req = 3608685 

Dual Bus Interface Util: 
issued_total_row = 5074544 
issued_total_col = 3608685 
Row_Bus_Util =  0.136554 
CoL_Bus_Util = 0.097108 
Either_Row_CoL_Bus_Util = 0.195223 
Issued_on_Two_Bus_Simul_Util = 0.038439 
issued_two_Eff = 0.196896 
queue_avg = 36.457729 


dram_util_bins: 0 0 0 0 0 0 0 0 0 0
dram_eff_bins: 0 0 0 0 0 0 0 0 0 0
mrqq: max=64 avg=36.4577

========= L2 cache stats =========
L2_cache_bank[0]: Access = 3012621, Miss = 1794942, Miss_rate = 0.596, Pending_hits = 22266, Reservation_fails = 0
L2_cache_bank[1]: Access = 3070453, Miss = 1810411, Miss_rate = 0.590, Pending_hits = 22404, Reservation_fails = 0
L2_cache_bank[2]: Access = 3045270, Miss = 1771369, Miss_rate = 0.582, Pending_hits = 20103, Reservation_fails = 259
L2_cache_bank[3]: Access = 3195394, Miss = 1788433, Miss_rate = 0.560, Pending_hits = 20285, Reservation_fails = 1559
L2_cache_bank[4]: Access = 3035908, Miss = 1781037, Miss_rate = 0.587, Pending_hits = 20650, Reservation_fails = 10
L2_cache_bank[5]: Access = 3026161, Miss = 1792827, Miss_rate = 0.592, Pending_hits = 21014, Reservation_fails = 333
L2_cache_bank[6]: Access = 3082615, Miss = 1792720, Miss_rate = 0.582, Pending_hits = 20558, Reservation_fails = 5
L2_cache_bank[7]: Access = 3020164, Miss = 1764487, Miss_rate = 0.584, Pending_hits = 19799, Reservation_fails = 105
L2_cache_bank[8]: Access = 3369279, Miss = 1774565, Miss_rate = 0.527, Pending_hits = 19034, Reservation_fails = 63
L2_cache_bank[9]: Access = 3068471, Miss = 1761875, Miss_rate = 0.574, Pending_hits = 19077, Reservation_fails = 0
L2_cache_bank[10]: Access = 3070395, Miss = 1774099, Miss_rate = 0.578, Pending_hits = 20688, Reservation_fails = 0
L2_cache_bank[11]: Access = 2983877, Miss = 1789265, Miss_rate = 0.600, Pending_hits = 20192, Reservation_fails = 440
L2_cache_bank[12]: Access = 3167640, Miss = 1769125, Miss_rate = 0.558, Pending_hits = 20323, Reservation_fails = 204
L2_cache_bank[13]: Access = 3094038, Miss = 1800953, Miss_rate = 0.582, Pending_hits = 21158, Reservation_fails = 668
L2_cache_bank[14]: Access = 3142968, Miss = 1793434, Miss_rate = 0.571, Pending_hits = 21784, Reservation_fails = 511
L2_cache_bank[15]: Access = 3073991, Miss = 1793189, Miss_rate = 0.583, Pending_hits = 21472, Reservation_fails = 11
L2_cache_bank[16]: Access = 3043199, Miss = 1776491, Miss_rate = 0.584, Pending_hits = 19968, Reservation_fails = 0
L2_cache_bank[17]: Access = 3110614, Miss = 1801333, Miss_rate = 0.579, Pending_hits = 21648, Reservation_fails = 252
L2_cache_bank[18]: Access = 3048879, Miss = 1805776, Miss_rate = 0.592, Pending_hits = 21004, Reservation_fails = 0
L2_cache_bank[19]: Access = 3066083, Miss = 1755501, Miss_rate = 0.573, Pending_hits = 19317, Reservation_fails = 955
L2_cache_bank[20]: Access = 3117016, Miss = 1790255, Miss_rate = 0.574, Pending_hits = 20456, Reservation_fails = 0
L2_cache_bank[21]: Access = 3037213, Miss = 1777029, Miss_rate = 0.585, Pending_hits = 19928, Reservation_fails = 0
L2_cache_bank[22]: Access = 3065351, Miss = 1758302, Miss_rate = 0.574, Pending_hits = 19292, Reservation_fails = 739
L2_cache_bank[23]: Access = 3040417, Miss = 1776132, Miss_rate = 0.584, Pending_hits = 19477, Reservation_fails = 366
L2_total_cache_accesses = 73988017
L2_total_cache_misses = 42793550
L2_total_cache_miss_rate = 0.5784
L2_total_cache_pending_hits = 491897
L2_total_cache_reservation_fails = 6480
L2_total_cache_breakdown:
	L2_cache_stats_breakdown[GLOBAL_ACC_R][HIT] = 29261562
	L2_cache_stats_breakdown[GLOBAL_ACC_R][HIT_RESERVED] = 491874
	L2_cache_stats_breakdown[GLOBAL_ACC_R][MISS] = 21536983
	L2_cache_stats_breakdown[GLOBAL_ACC_R][RESERVATION_FAIL] = 6480
	L2_cache_stats_breakdown[GLOBAL_ACC_R][SECTOR_MISS] = 21253321
	L2_cache_stats_breakdown[GLOBAL_ACC_R][MSHR_HIT] = 491874
	L2_cache_stats_breakdown[LOCAL_ACC_R][HIT] = 0
	L2_cache_stats_breakdown[LOCAL_ACC_R][HIT_RESERVED] = 0
	L2_cache_stats_breakdown[LOCAL_ACC_R][MISS] = 0
	L2_cache_stats_breakdown[LOCAL_ACC_R][RESERVATION_FAIL] = 0
	L2_cache_stats_breakdown[LOCAL_ACC_R][SECTOR_MISS] = 0
	L2_cache_stats_breakdown[LOCAL_ACC_R][MSHR_HIT] = 0
	L2_cache_stats_breakdown[CONST_ACC_R][HIT] = 0
	L2_cache_stats_breakdown[CONST_ACC_R][HIT_RESERVED] = 0
	L2_cache_stats_breakdown[CONST_ACC_R][MISS] = 0
	L2_cache_stats_breakdown[CONST_ACC_R][RESERVATION_FAIL] = 0
	L2_cache_stats_breakdown[CONST_ACC_R][SECTOR_MISS] = 0
	L2_cache_stats_breakdown[CONST_ACC_R][MSHR_HIT] = 0
	L2_cache_stats_breakdown[TEXTURE_ACC_R][HIT] = 0
	L2_cache_stats_breakdown[TEXTURE_ACC_R][HIT_RESERVED] = 0
	L2_cache_stats_breakdown[TEXTURE_ACC_R][MISS] = 0
	L2_cache_stats_breakdown[TEXTURE_ACC_R][RESERVATION_FAIL] = 0
	L2_cache_stats_breakdown[TEXTURE_ACC_R][SECTOR_MISS] = 0
	L2_cache_stats_breakdown[TEXTURE_ACC_R][MSHR_HIT] = 0
	L2_cache_stats_breakdown[GLOBAL_ACC_W][HIT] = 1441008
	L2_cache_stats_breakdown[GLOBAL_ACC_W][HIT_RESERVED] = 23
	L2_cache_stats_breakdown[GLOBAL_ACC_W][MISS] = 1501
	L2_cache_stats_breakdown[GLOBAL_ACC_W][RESERVATION_FAIL] = 0
	L2_cache_stats_breakdown[GLOBAL_ACC_W][SECTOR_MISS] = 1745
	L2_cache_stats_breakdown[GLOBAL_ACC_W][MSHR_HIT] = 0
	L2_cache_stats_breakdown[LOCAL_ACC_W][HIT] = 0
	L2_cache_stats_breakdown[LOCAL_ACC_W][HIT_RESERVED] = 0
	L2_cache_stats_breakdown[LOCAL_ACC_W][MISS] = 0
	L2_cache_stats_breakdown[LOCAL_ACC_W][RESERVATION_FAIL] = 0
	L2_cache_stats_breakdown[LOCAL_ACC_W][SECTOR_MISS] = 0
	L2_cache_stats_breakdown[LOCAL_ACC_W][MSHR_HIT] = 0
	L2_cache_stats_breakdown[L1_WRBK_ACC][HIT] = 0
	L2_cache_stats_breakdown[L1_WRBK_ACC][HIT_RESERVED] = 0
	L2_cache_stats_breakdown[L1_WRBK_ACC][MISS] = 0
	L2_cache_stats_breakdown[L1_WRBK_ACC][RESERVATION_FAIL] = 0
	L2_cache_stats_breakdown[L1_WRBK_ACC][SECTOR_MISS] = 0
	L2_cache_stats_breakdown[L1_WRBK_ACC][MSHR_HIT] = 0
	L2_cache_stats_breakdown[L2_WRBK_ACC][HIT] = 0
	L2_cache_stats_breakdown[L2_WRBK_ACC][HIT_RESERVED] = 0
	L2_cache_stats_breakdown[L2_WRBK_ACC][MISS] = 0
	L2_cache_stats_breakdown[L2_WRBK_ACC][RESERVATION_FAIL] = 0
	L2_cache_stats_breakdown[L2_WRBK_ACC][SECTOR_MISS] = 0
	L2_cache_stats_breakdown[L2_WRBK_ACC][MSHR_HIT] = 0
	L2_cache_stats_breakdown[INST_ACC_R][HIT] = 0
	L2_cache_stats_breakdown[INST_ACC_R][HIT_RESERVED] = 0
	L2_cache_stats_breakdown[INST_ACC_R][MISS] = 0
	L2_cache_stats_breakdown[INST_ACC_R][RESERVATION_FAIL] = 0
	L2_cache_stats_breakdown[INST_ACC_R][SECTOR_MISS] = 0
	L2_cache_stats_breakdown[INST_ACC_R][MSHR_HIT] = 0
	L2_cache_stats_breakdown[L1_WR_ALLOC_R][HIT] = 0
	L2_cache_stats_breakdown[L1_WR_ALLOC_R][HIT_RESERVED] = 0
	L2_cache_stats_breakdown[L1_WR_ALLOC_R][MISS] = 0
	L2_cache_stats_breakdown[L1_WR_ALLOC_R][RESERVATION_FAIL] = 0
	L2_cache_stats_breakdown[L1_WR_ALLOC_R][SECTOR_MISS] = 0
	L2_cache_stats_breakdown[L1_WR_ALLOC_R][MSHR_HIT] = 0
	L2_cache_stats_breakdown[L2_WR_ALLOC_R][HIT] = 0
	L2_cache_stats_breakdown[L2_WR_ALLOC_R][HIT_RESERVED] = 0
	L2_cache_stats_breakdown[L2_WR_ALLOC_R][MISS] = 0
	L2_cache_stats_breakdown[L2_WR_ALLOC_R][RESERVATION_FAIL] = 0
	L2_cache_stats_breakdown[L2_WR_ALLOC_R][SECTOR_MISS] = 0
	L2_cache_stats_breakdown[L2_WR_ALLOC_R][MSHR_HIT] = 0
	L2_cache_stats_breakdown[GLOBAL_ACC_R][TOTAL_ACCESS] = 72543740
	L2_cache_stats_breakdown[GLOBAL_ACC_W][TOTAL_ACCESS] = 1444277
L2_total_cache_reservation_fail_breakdown:
	L2_cache_stats_fail_breakdown[GLOBAL_ACC_R][MSHR_MERGE_ENRTY_FAIL] = 6480
L2_cache_data_port_util = 0.088
L2_cache_fill_port_util = 0.123

icnt_total_pkts_mem_to_simt=73988017
icnt_total_pkts_simt_to_mem=73988017
LD_mem_lat_dist  0 0 0 0 0 0 0 0 0 0 0 0 0 0 0 0 0 0 0 0 0 0 0 0 0 0 0
ST_mem_lat_dist  0 0 0 0 0 0 0 0 0 0 0 0 0 0 0 0 0 0 0 0 0 0 0 0 0 0 0
----------------------------Interconnect-DETAILS--------------------------------
Req_Network_injected_packets_num = 73988017
Req_Network_cycles = 14490953
Req_Network_injected_packets_per_cycle =       5.1058 
Req_Network_conflicts_per_cycle =       0.8675
Req_Network_conflicts_per_cycle_util =       0.9865
Req_Bank_Level_Parallism =       5.8061
Req_Network_in_buffer_full_per_cycle =       0.0000
Req_Network_in_buffer_avg_util =       0.4286
Req_Network_out_buffer_full_per_cycle =       0.0000
Req_Network_out_buffer_avg_util =       0.2184

Reply_Network_injected_packets_num = 73988017
Reply_Network_cycles = 14490953
Reply_Network_injected_packets_per_cycle =        5.1058
Reply_Network_conflicts_per_cycle =        1.2656
Reply_Network_conflicts_per_cycle_util =       1.4373
Reply_Bank_Level_Parallism =       5.7983
Reply_Network_in_buffer_full_per_cycle =       0.0000
Reply_Network_in_buffer_avg_util =       0.2182
Reply_Network_out_buffer_full_per_cycle =       0.0000
Reply_Network_out_buffer_avg_util =       0.1702
----------------------------END-of-Interconnect-DETAILS-------------------------


gpgpu_simulation_time = 1 days, 8 hrs, 18 min, 29 sec (116309 sec)
gpgpu_simulation_rate = 27333 (inst/sec)
gpgpu_simulation_rate = 124 (cycle/sec)
gpgpu_silicon_slowdown = 11008064x
GPGPU-Sim: synchronize waiting for inactive GPU simulation
GPGPU-Sim API: Stream Manager State
GPGPU-Sim: detected inactive GPU simulation thread
	iterations = 6.
	runtime [cuda_warp] = 116292509.121000 ms.
Verifying...
	runtime [serial] = 377.752000 ms.
Correct
GPGPU-Sim: *** exit detected ***
