

        *** GPGPU-Sim Simulator Version 4.2.0  [build gpgpu-sim_git-commit-5e9d31b8132651796656877ecb58fde27177ba7a_modified_303.0] ***


GPGPU-Sim PTX: simulation mode 0 (can change with PTX_SIM_MODE_FUNC environment variable:
               1=functional simulation only, 0=detailed performance simulator)
GPGPU-Sim PTX: overriding embedded ptx with ptx file (PTX_SIM_USE_PTX_FILE is set)
GPGPU-Sim: Configuration options:

-save_embedded_ptx                      0 # saves ptx files embedded in binary as <n>.ptx
-keep                                   0 # keep intermediate files created by GPGPU-Sim when interfacing with external programs
-gpgpu_ptx_save_converted_ptxplus                    0 # Saved converted ptxplus to a file
-gpgpu_occupancy_sm_number                   75 # The SM number to pass to ptxas when getting register usage for computing GPU occupancy. This parameter is required in the config.
-ptx_opcode_latency_int           4,4,4,4,21 # Opcode latencies for integers <ADD,MAX,MUL,MAD,DIV,SHFL>Default 1,1,19,25,145,32
-ptx_opcode_latency_fp           4,4,4,4,39 # Opcode latencies for single precision floating points <ADD,MAX,MUL,MAD,DIV>Default 1,1,1,1,30
-ptx_opcode_latency_dp      64,64,64,64,330 # Opcode latencies for double precision floating points <ADD,MAX,MUL,MAD,DIV>Default 8,8,8,8,335
-ptx_opcode_latency_sfu                   21 # Opcode latencies for SFU instructionsDefault 8
-ptx_opcode_latency_tesnor                   64 # Opcode latencies for Tensor instructionsDefault 64
-ptx_opcode_initiation_int            2,2,2,2,2 # Opcode initiation intervals for integers <ADD,MAX,MUL,MAD,DIV,SHFL>Default 1,1,4,4,32,4
-ptx_opcode_initiation_fp            2,2,2,2,4 # Opcode initiation intervals for single precision floating points <ADD,MAX,MUL,MAD,DIV>Default 1,1,1,1,5
-ptx_opcode_initiation_dp      64,64,64,64,130 # Opcode initiation intervals for double precision floating points <ADD,MAX,MUL,MAD,DIV>Default 8,8,8,8,130
-ptx_opcode_initiation_sfu                    8 # Opcode initiation intervals for sfu instructionsDefault 8
-ptx_opcode_initiation_tensor                   64 # Opcode initiation intervals for tensor instructionsDefault 64
-cdp_latency         7200,8000,100,12000,1600 # CDP API latency <cudaStreamCreateWithFlags, cudaGetParameterBufferV2_init_perWarp, cudaGetParameterBufferV2_perKernel, cudaLaunchDeviceV2_init_perWarp, cudaLaunchDevicV2_perKernel>Default 7200,8000,100,12000,1600
-network_mode                           2 # Interconnection network mode
-inter_config_file                   mesh # Interconnection network config file
-icnt_in_buffer_limit                  512 # in_buffer_limit
-icnt_out_buffer_limit                  512 # out_buffer_limit
-icnt_subnets                           2 # subnets
-icnt_arbiter_algo                      1 # arbiter_algo
-icnt_verbose                           0 # inct_verbose
-icnt_grant_cycles                      1 # grant_cycles
-gpgpu_ptx_use_cuobjdump                    1 # Use cuobjdump to extract ptx and sass from binaries
-gpgpu_experimental_lib_support                    0 # Try to extract code from cuda libraries [Broken because of unknown cudaGetExportTable]
-checkpoint_option                      0 #  checkpointing flag (0 = no checkpoint)
-checkpoint_kernel                      1 #  checkpointing during execution of which kernel (1- 1st kernel)
-checkpoint_CTA                         0 #  checkpointing after # of CTA (< less than total CTA)
-resume_option                          0 #  resume flag (0 = no resume)
-resume_kernel                          0 #  Resume from which kernel (1= 1st kernel)
-resume_CTA                             0 #  resume from which CTA 
-checkpoint_CTA_t                       0 #  resume from which CTA 
-checkpoint_insn_Y                      0 #  resume from which CTA 
-gpgpu_ptx_convert_to_ptxplus                    0 # Convert SASS (native ISA) to ptxplus and run ptxplus
-gpgpu_ptx_force_max_capability                   75 # Force maximum compute capability
-gpgpu_ptx_inst_debug_to_file                    0 # Dump executed instructions' debug information to file
-gpgpu_ptx_inst_debug_file       inst_debug.txt # Executed instructions' debug output file
-gpgpu_ptx_inst_debug_thread_uid                    1 # Thread UID for executed instructions' debug output
-gpgpu_simd_model                       1 # 1 = post-dominator
-gpgpu_shader_core_pipeline              1024:32 # shader core pipeline config, i.e., {<nthread>:<warpsize>}
-gpgpu_tex_cache:l1  N:4:128:256,L:R:m:N:L,T:512:8,128:2 # per-shader L1 texture cache  (READ-ONLY) config  {<nsets>:<bsize>:<assoc>,<rep>:<wr>:<alloc>:<wr_alloc>,<mshr>:<N>:<merge>,<mq>:<rf>}
-gpgpu_const_cache:l1 N:128:64:8,L:R:f:N:L,S:2:64,4 # per-shader L1 constant memory cache  (READ-ONLY) config  {<nsets>:<bsize>:<assoc>,<rep>:<wr>:<alloc>:<wr_alloc>,<mshr>:<N>:<merge>,<mq>} 
-gpgpu_cache:il1     N:64:128:16,L:R:f:N:L,S:2:48,4 # shader L1 instruction cache config  {<nsets>:<bsize>:<assoc>,<rep>:<wr>:<alloc>:<wr_alloc>,<mshr>:<N>:<merge>,<mq>} 
-gpgpu_cache:dl1     S:4:128:64,L:T:m:L:L,A:256:32,16:0,32 # per-shader L1 data cache config  {<nsets>:<bsize>:<assoc>,<rep>:<wr>:<alloc>:<wr_alloc>,<mshr>:<N>:<merge>,<mq> | none}
-gpgpu_l1_cache_write_ratio                   25 # L1D write ratio
-gpgpu_l1_banks                         4 # The number of L1 cache banks
-gpgpu_l1_banks_byte_interleaving                   32 # l1 banks byte interleaving granularity
-gpgpu_l1_banks_hashing_function                    0 # l1 banks hashing function
-gpgpu_l1_latency                      32 # L1 Hit Latency
-gpgpu_smem_latency                    30 # smem Latency
-gpgpu_cache:dl1PrefL1                 none # per-shader L1 data cache config  {<nsets>:<bsize>:<assoc>,<rep>:<wr>:<alloc>:<wr_alloc>,<mshr>:<N>:<merge>,<mq> | none}
-gpgpu_cache:dl1PrefShared                 none # per-shader L1 data cache config  {<nsets>:<bsize>:<assoc>,<rep>:<wr>:<alloc>:<wr_alloc>,<mshr>:<N>:<merge>,<mq> | none}
-gpgpu_gmem_skip_L1D                    0 # global memory access skip L1D cache (implements -Xptxas -dlcm=cg, default=no skip)
-gpgpu_perfect_mem                      0 # enable perfect memory mode (no cache miss)
-n_regfile_gating_group                    4 # group of lanes that should be read/written together)
-gpgpu_clock_gated_reg_file                    0 # enable clock gated reg file for power calculations
-gpgpu_clock_gated_lanes                    0 # enable clock gated lanes for power calculations
-gpgpu_shader_registers                65536 # Number of registers per shader core. Limits number of concurrent CTAs. (default 8192)
-gpgpu_registers_per_block                65536 # Maximum number of registers per CTA. (default 8192)
-gpgpu_ignore_resources_limitation                    0 # gpgpu_ignore_resources_limitation (default 0)
-gpgpu_shader_cta                      16 # Maximum number of concurrent CTAs in shader (default 32)
-gpgpu_num_cta_barriers                   16 # Maximum number of named barriers per CTA (default 16)
-gpgpu_n_clusters                      30 # number of processing clusters
-gpgpu_n_cores_per_cluster                    1 # number of simd cores per cluster
-gpgpu_n_cluster_ejection_buffer_size                   32 # number of packets in ejection buffer
-gpgpu_n_ldst_response_buffer_size                    2 # number of response packets in ld/st unit ejection buffer
-gpgpu_shmem_per_block                49152 # Size of shared memory per thread block or CTA (default 48kB)
-gpgpu_shmem_size                   65536 # Size of shared memory per shader core (default 16kB)
-gpgpu_shmem_option                 32,64 # Option list of shared memory sizes
-gpgpu_unified_l1d_size                   96 # Size of unified data cache(L1D + shared memory) in KB
-gpgpu_adaptive_cache_config                    1 # adaptive_cache_config
-gpgpu_shmem_sizeDefault                65536 # Size of shared memory per shader core (default 16kB)
-gpgpu_shmem_size_PrefL1                16384 # Size of shared memory per shader core (default 16kB)
-gpgpu_shmem_size_PrefShared                16384 # Size of shared memory per shader core (default 16kB)
-gpgpu_shmem_num_banks                   32 # Number of banks in the shared memory in each shader core (default 16)
-gpgpu_shmem_limited_broadcast                    0 # Limit shared memory to do one broadcast per cycle (default on)
-gpgpu_shmem_warp_parts                    1 # Number of portions a warp is divided into for shared memory bank conflict check 
-gpgpu_mem_unit_ports                    1 # The number of memory transactions allowed per core cycle
-gpgpu_shmem_warp_parts                    1 # Number of portions a warp is divided into for shared memory bank conflict check 
-gpgpu_warpdistro_shader                   -1 # Specify which shader core to collect the warp size distribution from
-gpgpu_warp_issue_shader                    0 # Specify which shader core to collect the warp issue distribution from
-gpgpu_local_mem_map                    1 # Mapping from local memory space address to simulated GPU physical address space (default = enabled)
-gpgpu_num_reg_banks                    8 # Number of register banks (default = 8)
-gpgpu_reg_bank_use_warp_id                    0 # Use warp ID in mapping registers to banks (default = off)
-gpgpu_sub_core_model                    1 # Sub Core Volta/Pascal model (default = off)
-gpgpu_enable_specialized_operand_collector                    0 # enable_specialized_operand_collector
-gpgpu_operand_collector_num_units_sp                    4 # number of collector units (default = 4)
-gpgpu_operand_collector_num_units_dp                    0 # number of collector units (default = 0)
-gpgpu_operand_collector_num_units_sfu                    4 # number of collector units (default = 4)
-gpgpu_operand_collector_num_units_int                    0 # number of collector units (default = 0)
-gpgpu_operand_collector_num_units_tensor_core                    4 # number of collector units (default = 4)
-gpgpu_operand_collector_num_units_mem                    2 # number of collector units (default = 2)
-gpgpu_operand_collector_num_units_gen                    8 # number of collector units (default = 0)
-gpgpu_operand_collector_num_in_ports_sp                    1 # number of collector unit in ports (default = 1)
-gpgpu_operand_collector_num_in_ports_dp                    0 # number of collector unit in ports (default = 0)
-gpgpu_operand_collector_num_in_ports_sfu                    1 # number of collector unit in ports (default = 1)
-gpgpu_operand_collector_num_in_ports_int                    0 # number of collector unit in ports (default = 0)
-gpgpu_operand_collector_num_in_ports_tensor_core                    1 # number of collector unit in ports (default = 1)
-gpgpu_operand_collector_num_in_ports_mem                    1 # number of collector unit in ports (default = 1)
-gpgpu_operand_collector_num_in_ports_gen                    8 # number of collector unit in ports (default = 0)
-gpgpu_operand_collector_num_out_ports_sp                    1 # number of collector unit in ports (default = 1)
-gpgpu_operand_collector_num_out_ports_dp                    0 # number of collector unit in ports (default = 0)
-gpgpu_operand_collector_num_out_ports_sfu                    1 # number of collector unit in ports (default = 1)
-gpgpu_operand_collector_num_out_ports_int                    0 # number of collector unit in ports (default = 0)
-gpgpu_operand_collector_num_out_ports_tensor_core                    1 # number of collector unit in ports (default = 1)
-gpgpu_operand_collector_num_out_ports_mem                    1 # number of collector unit in ports (default = 1)
-gpgpu_operand_collector_num_out_ports_gen                    8 # number of collector unit in ports (default = 0)
-gpgpu_coalesce_arch                   75 # Coalescing arch (GT200 = 13, Fermi = 20)
-gpgpu_num_sched_per_core                    4 # Number of warp schedulers per core
-gpgpu_max_insn_issue_per_warp                    1 # Max number of instructions that can be issued per warp in one cycle by scheduler (either 1 or 2)
-gpgpu_dual_issue_diff_exec_units                    1 # should dual issue use two different execution unit resources (Default = 1)
-gpgpu_simt_core_sim_order                    1 # Select the simulation order of cores in a cluster (0=Fix, 1=Round-Robin)
-gpgpu_pipeline_widths 4,4,4,4,4,4,4,4,4,4,8,4,4 # Pipeline widths ID_OC_SP,ID_OC_DP,ID_OC_INT,ID_OC_SFU,ID_OC_MEM,OC_EX_SP,OC_EX_DP,OC_EX_INT,OC_EX_SFU,OC_EX_MEM,EX_WB,ID_OC_TENSOR_CORE,OC_EX_TENSOR_CORE
-gpgpu_tensor_core_avail                    1 # Tensor Core Available (default=0)
-gpgpu_num_sp_units                     4 # Number of SP units (default=1)
-gpgpu_num_dp_units                     4 # Number of DP units (default=0)
-gpgpu_num_int_units                    4 # Number of INT units (default=0)
-gpgpu_num_sfu_units                    4 # Number of SF units (default=1)
-gpgpu_num_tensor_core_units                    4 # Number of tensor_core units (default=1)
-gpgpu_num_mem_units                    1 # Number if ldst units (default=1) WARNING: not hooked up to anything
-kernelBased                            1 # Does the approximator work as kernel based (default = 0)
-kernelId                               0 # Kernel ids where the approximation applied 
-hybridApproximation                    0 # Hybrid approximator (default = 0)
-errorPercentage                       50 # Error percentage (number of max flushed accesses)
-l1dApproximator                        0 # Memory access delete unit (default = 0)
-l1dSlicingAccessInterval                 5000 # Slice access window length (default = 1000)
-l2Approximator                         1 # Memory access delete unit (default = 0)
-l2SlicingAccessInterval                 5000 # Slice access window length (default = 1000)
-smOccupancy                            0 # sm occupancy (default = 0)
-smSlicingInterval                   5000 # Slice access window length (default = 1000)
-gpgpu_scheduler                      lrr # Scheduler configuration: < lrr | gto | two_level_active > If two_level_active:<num_active_warps>:<inner_prioritization>:<outer_prioritization>For complete list of prioritization values see shader.h enum scheduler_prioritization_typeDefault: gto
-gpgpu_concurrent_kernel_sm                    0 # Support concurrent kernels on a SM (default = disabled)
-gpgpu_perfect_inst_const_cache                    1 # perfect inst and const cache mode, so all inst and const hits in the cache(default = disabled)
-gpgpu_inst_fetch_throughput                    4 # the number of fetched intruction per warp each cycle
-gpgpu_reg_file_port_throughput                    2 # the number ports of the register file
-specialized_unit_1         0,4,4,4,4,BRA # specialized unit config {<enabled>,<num_units>:<latency>:<initiation>,<ID_OC_SPEC>:<OC_EX_SPEC>,<NAME>}
-specialized_unit_2         0,4,4,4,4,BRA # specialized unit config {<enabled>,<num_units>:<latency>:<initiation>,<ID_OC_SPEC>:<OC_EX_SPEC>,<NAME>}
-specialized_unit_3         0,4,4,4,4,BRA # specialized unit config {<enabled>,<num_units>:<latency>:<initiation>,<ID_OC_SPEC>:<OC_EX_SPEC>,<NAME>}
-specialized_unit_4         0,4,4,4,4,BRA # specialized unit config {<enabled>,<num_units>:<latency>:<initiation>,<ID_OC_SPEC>:<OC_EX_SPEC>,<NAME>}
-specialized_unit_5         0,4,4,4,4,BRA # specialized unit config {<enabled>,<num_units>:<latency>:<initiation>,<ID_OC_SPEC>:<OC_EX_SPEC>,<NAME>}
-specialized_unit_6         0,4,4,4,4,BRA # specialized unit config {<enabled>,<num_units>:<latency>:<initiation>,<ID_OC_SPEC>:<OC_EX_SPEC>,<NAME>}
-specialized_unit_7         0,4,4,4,4,BRA # specialized unit config {<enabled>,<num_units>:<latency>:<initiation>,<ID_OC_SPEC>:<OC_EX_SPEC>,<NAME>}
-specialized_unit_8         0,4,4,4,4,BRA # specialized unit config {<enabled>,<num_units>:<latency>:<initiation>,<ID_OC_SPEC>:<OC_EX_SPEC>,<NAME>}
-gpgpu_perf_sim_memcpy                    1 # Fill the L2 cache on memcpy
-gpgpu_simple_dram_model                    0 # simple_dram_model with fixed latency and BW
-gpgpu_dram_scheduler                    1 # 0 = fifo, 1 = FR-FCFS (defaul)
-gpgpu_dram_partition_queues          64:64:64:64 # i2$:$2d:d2$:$2i
-l2_ideal                               0 # Use a ideal L2 cache that always hit
-gpgpu_cache:dl2     S:64:128:16,L:B:m:L:P,A:192:4,32:0,32 # unified banked L2 data cache config  {<nsets>:<bsize>:<assoc>,<rep>:<wr>:<alloc>:<wr_alloc>,<mshr>:<N>:<merge>,<mq>}
-gpgpu_cache:dl2_texture_only                    0 # L2 cache used for texture only
-gpgpu_n_mem                           12 # number of memory modules (e.g. memory controllers) in gpu
-gpgpu_n_sub_partition_per_mchannel                    2 # number of memory subpartition in each memory module
-gpgpu_n_mem_per_ctrlr                    1 # number of memory chips per memory controller
-gpgpu_memlatency_stat                   14 # track and display latency statistics 0x2 enables MC, 0x4 enables queue logs
-gpgpu_frfcfs_dram_sched_queue_size                   64 # 0 = unlimited (default); # entries per chip
-gpgpu_dram_return_queue_size                  192 # 0 = unlimited (default); # entries per chip
-gpgpu_dram_buswidth                    2 # default = 4 bytes (8 bytes per cycle at DDR)
-gpgpu_dram_burst_length                   16 # Burst length of each DRAM request (default = 4 data bus cycle)
-dram_data_command_freq_ratio                    4 # Frequency ratio between DRAM data bus and command bus (default = 2 times, i.e. DDR)
-gpgpu_dram_timing_opt nbk=16:CCD=4:RRD=12:RCD=24:RAS=55:RP=24:RC=78:CL=24:WL=8:CDLR=10:WR=24:nbkgrp=4:CCDL=6:RTPL=4 # DRAM timing parameters = {nbk:tCCD:tRRD:tRCD:tRAS:tRP:tRC:CL:WL:tCDLR:tWR:nbkgrp:tCCDL:tRTPL}
-gpgpu_l2_rop_latency                  194 # ROP queue latency (default 85)
-dram_latency                          96 # DRAM latency (default 30)
-dram_dual_bus_interface                    0 # dual_bus_interface (default = 0) 
-dram_bnk_indexing_policy                    0 # dram_bnk_indexing_policy (0 = normal indexing, 1 = Xoring with the higher bits) (Default = 0)
-dram_bnkgrp_indexing_policy                    1 # dram_bnkgrp_indexing_policy (0 = take higher bits, 1 = take lower bits) (Default = 0)
-dram_seperate_write_queue_enable                    0 # Seperate_Write_Queue_Enable
-dram_write_queue_size             32:28:16 # Write_Queue_Size
-dram_elimnate_rw_turnaround                    0 # elimnate_rw_turnaround i.e set tWTR and tRTW = 0
-icnt_flit_size                        40 # icnt_flit_size
-icnt_flit_size                        40 # icnt_flit_size
-mem_profiler                           0 # memory access runtime profiling (0 = not enabled)
-gpgpu_mem_addr_mapping dramid@8;00000000.00000000.00000000.00000000.0000RRRR.RRRRRRRR.RBBBCCCC.BCCSSSSS # mapping memory address to dram model {dramid@<start bit>;<memory address map>}
-gpgpu_mem_addr_test                    0 # run sweep test to check address mapping for aliased address
-gpgpu_mem_address_mask                    1 # 0 = old addressing mask, 1 = new addressing mask, 2 = new add. mask + flipped bank sel and chip sel bits
-gpgpu_memory_partition_indexing                    0 # 0 = no indexing, 1 = bitwise xoring, 2 = IPoly, 3 = custom indexing
-accelwattch_xml_file accelwattch_sass_sim.xml # AccelWattch XML file
-power_simulation_enabled                    1 # Turn on power simulator (1=On, 0=Off)
-power_per_cycle_dump                    1 # Dump detailed power output each cycle
-hw_perf_file_name            hw_perf.csv # Hardware Performance Statistics file
-hw_perf_bench_name    hw_perf_bench_name # Kernel Name in Hardware Performance Statistics file
-power_simulation_mode                    0 # Switch performance counter input for power simulation (0=Sim, 1=HW, 2=HW-Sim Hybrid)
-dvfs_enabled                           1 # Turn on DVFS for power model
-aggregate_power_stats                    0 # Accumulate power across all kernels
-accelwattch_hybrid_perfsim_L1_RH                    0 # Get L1 Read Hits for Accelwattch-Hybrid from Accel-Sim
-accelwattch_hybrid_perfsim_L1_RM                    0 # Get L1 Read Misses for Accelwattch-Hybrid from Accel-Sim
-accelwattch_hybrid_perfsim_L1_WH                    0 # Get L1 Write Hits for Accelwattch-Hybrid from Accel-Sim
-accelwattch_hybrid_perfsim_L1_WM                    0 # Get L1 Write Misses for Accelwattch-Hybrid from Accel-Sim
-accelwattch_hybrid_perfsim_L2_RH                    0 # Get L2 Read Hits for Accelwattch-Hybrid from Accel-Sim
-accelwattch_hybrid_perfsim_L2_RM                    0 # Get L2 Read Misses for Accelwattch-Hybrid from Accel-Sim
-accelwattch_hybrid_perfsim_L2_WH                    0 # Get L2 Write Hits for Accelwattch-Hybrid from Accel-Sim
-accelwattch_hybrid_perfsim_L2_WM                    0 # Get L2 Write Misses for Accelwattch-Hybrid from Accel-Sim
-accelwattch_hybrid_perfsim_CC_ACC                    0 # Get Constant Cache Acesses for Accelwattch-Hybrid from Accel-Sim
-accelwattch_hybrid_perfsim_SHARED_ACC                    0 # Get Shared Memory Acesses for Accelwattch-Hybrid from Accel-Sim
-accelwattch_hybrid_perfsim_DRAM_RD                    0 # Get DRAM Reads for Accelwattch-Hybrid from Accel-Sim
-accelwattch_hybrid_perfsim_DRAM_WR                    0 # Get DRAM Writes for Accelwattch-Hybrid from Accel-Sim
-accelwattch_hybrid_perfsim_NOC                    0 # Get Interconnect Acesses for Accelwattch-Hybrid from Accel-Sim
-accelwattch_hybrid_perfsim_PIPE_DUTY                    0 # Get Pipeline Duty Cycle Acesses for Accelwattch-Hybrid from Accel-Sim
-accelwattch_hybrid_perfsim_NUM_SM_IDLE                    0 # Get Number of Idle SMs for Accelwattch-Hybrid from Accel-Sim
-accelwattch_hybrid_perfsim_CYCLES                    0 # Get Executed Cycles for Accelwattch-Hybrid from Accel-Sim
-accelwattch_hybrid_perfsim_VOLTAGE                    0 # Get Chip Voltage for Accelwattch-Hybrid from Accel-Sim
-power_trace_enabled                    0 # produce a file for the power trace (1=On, 0=Off)
-power_trace_zlevel                     0 # Compression level of the power trace output log (0=no comp, 9=highest)
-steady_power_levels_enabled                    0 # produce a file for the steady power levels (1=On, 0=Off)
-steady_state_definition                  8:4 # allowed deviation:number of samples
-gpgpu_max_cycle                        0 # terminates gpu simulation early (0 = no limit)
-gpgpu_max_insn                         0 # terminates gpu simulation early (0 = no limit)
-gpgpu_max_cta                          0 # terminates gpu simulation early (0 = no limit)
-gpgpu_max_completed_cta                    0 # terminates gpu simulation early (0 = no limit)
-gpgpu_runtime_stat                  1000 # display runtime statistics such as dram utilization {<freq>:<flag>}
-liveness_message_freq                    1 # Minimum number of seconds between simulation liveness messages (0 = always print)
-gpgpu_compute_capability_major                    7 # Major compute capability version number
-gpgpu_compute_capability_minor                    5 # Minor compute capability version number
-gpgpu_flush_l1_cache                    1 # Flush L1 cache at the end of each kernel call
-gpgpu_flush_l2_cache                    0 # Flush L2 cache at the end of each kernel call
-gpgpu_deadlock_detect                    1 # Stop the simulation at deadlock (1=on (default), 0=off)
-gpgpu_ptx_instruction_classification                    0 # if enabled will classify ptx instruction types per kernel (Max 255 kernels now)
-gpgpu_ptx_sim_mode                     0 # Select between Performance (default) or Functional simulation (1)
-gpgpu_clock_domains 1365:1365:1365:3500.5 # Clock Domain Frequencies in MhZ {<Core Clock>:<ICNT Clock>:<L2 Clock>:<DRAM Clock>}
-gpgpu_max_concurrent_kernel                  128 # maximum kernels that can run concurrently on GPU, set this value according to max resident grids for your compute capability
-gpgpu_cflog_interval                    0 # Interval between each snapshot in control flow logger
-visualizer_enabled                     0 # Turn on visualizer output (1=On, 0=Off)
-visualizer_outputfile                 NULL # Specifies the output log file for visualizer
-visualizer_zlevel                      6 # Compression level of the visualizer output log (0=no comp, 9=highest)
-gpgpu_stack_size_limit                 1024 # GPU thread stack size
-gpgpu_heap_size_limit              8388608 # GPU malloc heap size 
-gpgpu_runtime_sync_depth_limit                    2 # GPU device runtime synchronize depth
-gpgpu_runtime_pending_launch_count_limit                 2048 # GPU device runtime pending launch count
-trace_enabled                          0 # Turn on traces
-trace_components                    none # comma seperated list of traces to enable. Complete list found in trace_streams.tup. Default none
-trace_sampling_core                    0 # The core which is printed using CORE_DPRINTF. Default 0
-trace_sampling_memory_partition                   -1 # The memory partition which is printed using MEMPART_DPRINTF. Default -1 (i.e. all)
-enable_ptx_file_line_stats                    1 # Turn on PTX source line statistic profiling. (1 = On)
-ptx_line_stats_filename gpgpu_inst_stats.txt # Output file for PTX source line statistics.
-gpgpu_kernel_launch_latency                 5000 # Kernel launch latency in cycles. Default: 0
-gpgpu_cdp_enabled                      0 # Turn on CDP
-gpgpu_TB_launch_latency                    0 # thread block launch latency in cycles. Default: 0
-mem_runtime_stat                     100 # memory access runtime profiling sampling freq
-L1D_metrics                            0 # memory access runtime profiling for L1 data cache
-noncoal_metrics                        0 # memory access runtime profiling for shared memory
-L2_metrics                             0 # memory access runtime profiling for L2 cache
-DRAM_metrics                           0 # memory access runtime profiling for DRAM
-Shmem_metrics                          0 # memory access runtime profiling for noncoalesced accesses
-store_enable                           0 # Enable stores for memory profiling
-accumulate_stats                       0 # Accumulate stats for the memory profiling
-dump_enable                            0 # Process dump enable flag - (def = 0)
-flush_l1d                              0 # Enable flushings for L1D caches - (default = 0)
-flush_l2                               0 # Enable flushings for L2 caches - (default = 0)
-flush_dram                             0 # Enable flushings for DRAM - (default = 0)
-flush_noncoalesceds                    0 # Enable flushings for non coalesced accesses - (default = 0)
-flush_shmems                           0 # Enable flushings for shared memory accesses - (default = 0)
-error_percentage                       2 # Error percentage for the flushes - (default = 1)
-flush_acc_type                         2 # Flush access types
-monitor_sampling_cycle                  200 # Monitoring sampling cycle - (default = 5000)
DRAM Timing Options:
nbk                                    16 # number of banks
CCD                                     4 # column to column delay
RRD                                    12 # minimal delay between activation of rows in different banks
RCD                                    24 # row to column delay
RAS                                    55 # time needed to activate row
RP                                     24 # time needed to precharge (deactivate) row
RC                                     78 # row cycle time
CDLR                                   10 # switching from write to read (changes tWTR)
WR                                     24 # last data-in to row precharge
CL                                     24 # CAS latency
WL                                      8 # Write latency
nbkgrp                                  4 # number of bank groups
CCDL                                    6 # column to column delay between accesses to different bank groups
RTPL                                    4 # read to precharge delay between accesses to different bank groups
Total number of memory sub partition = 24
addr_dec_mask[CHIP]  = 0000000000000000 	high:64 low:0
addr_dec_mask[BK]    = 0000000000007080 	high:15 low:7
addr_dec_mask[ROW]   = 000000000fff8000 	high:28 low:15
addr_dec_mask[COL]   = 0000000000000f7f 	high:12 low:0
addr_dec_mask[BURST] = 000000000000001f 	high:5 low:0
sub_partition_id_mask = 0000000000000080
GPGPU-Sim uArch: clock freqs: 1365000000.000000:1365000000.000000:1365000000.000000:3500500000.000000
GPGPU-Sim uArch: clock periods: 0.00000000073260073260:0.00000000073260073260:0.00000000073260073260:0.00000000028567347522
*** Initializing Memory Statistics ***
--------------------------------------------------------------
L2 access stats (for 0'th subPartition) 
--	Kid = 0 || L2 Acc = 427502, -- Miss = 1347, rate = 0.0032, -- PendHits = 179, rate = 0.0004-- ResFail = 0, rate = 0.0000
Error Per = 50 || Flushes = 26 || slicingInterval = 5000
--	Kid = 1 || L2 Acc = 427556, -- Miss = 0, rate = 0.0000, -- PendHits = 0, rate = 0.0000-- ResFail = 0, rate = 0.0000
Error Per = 50 || Flushes = 0 || slicingInterval = 5000
--------------------------------------------------------------
L2 access stats (for 1'th subPartition) 
--	Kid = 0 || L2 Acc = 414854, -- Miss = 1345, rate = 0.0032, -- PendHits = 283, rate = 0.0007-- ResFail = 0, rate = 0.0000
Error Per = 50 || Flushes = 26 || slicingInterval = 5000
--	Kid = 1 || L2 Acc = 414823, -- Miss = 0, rate = 0.0000, -- PendHits = 0, rate = 0.0000-- ResFail = 0, rate = 0.0000
Error Per = 50 || Flushes = 0 || slicingInterval = 5000
--------------------------------------------------------------
L2 access stats (for 2'th subPartition) 
--	Kid = 0 || L2 Acc = 415099, -- Miss = 1340, rate = 0.0032, -- PendHits = 532, rate = 0.0013-- ResFail = 3521, rate = 0.0085
Error Per = 50 || Flushes = 26 || slicingInterval = 5000
--	Kid = 1 || L2 Acc = 415088, -- Miss = 0, rate = 0.0000, -- PendHits = 0, rate = 0.0000-- ResFail = 0, rate = 0.0000
Error Per = 50 || Flushes = 0 || slicingInterval = 5000
--------------------------------------------------------------
L2 access stats (for 3'th subPartition) 
--	Kid = 0 || L2 Acc = 404010, -- Miss = 1347, rate = 0.0033, -- PendHits = 305, rate = 0.0008-- ResFail = 0, rate = 0.0000
Error Per = 50 || Flushes = 26 || slicingInterval = 5000
--	Kid = 1 || L2 Acc = 404047, -- Miss = 0, rate = 0.0000, -- PendHits = 0, rate = 0.0000-- ResFail = 0, rate = 0.0000
Error Per = 50 || Flushes = 0 || slicingInterval = 5000
--------------------------------------------------------------
L2 access stats (for 4'th subPartition) 
--	Kid = 0 || L2 Acc = 436814, -- Miss = 1342, rate = 0.0031, -- PendHits = 738, rate = 0.0017-- ResFail = 11870, rate = 0.0272
Error Per = 50 || Flushes = 26 || slicingInterval = 5000
--	Kid = 1 || L2 Acc = 436834, -- Miss = 0, rate = 0.0000, -- PendHits = 0, rate = 0.0000-- ResFail = 0, rate = 0.0000
Error Per = 50 || Flushes = 0 || slicingInterval = 5000
--------------------------------------------------------------
L2 access stats (for 5'th subPartition) 
--	Kid = 0 || L2 Acc = 404160, -- Miss = 1345, rate = 0.0033, -- PendHits = 358, rate = 0.0009-- ResFail = 0, rate = 0.0000
Error Per = 50 || Flushes = 26 || slicingInterval = 5000
--	Kid = 1 || L2 Acc = 404160, -- Miss = 0, rate = 0.0000, -- PendHits = 0, rate = 0.0000-- ResFail = 0, rate = 0.0000
Error Per = 50 || Flushes = 0 || slicingInterval = 5000
--------------------------------------------------------------
L2 access stats (for 6'th subPartition) 
--	Kid = 0 || L2 Acc = 425995, -- Miss = 1348, rate = 0.0032, -- PendHits = 346, rate = 0.0008-- ResFail = 0, rate = 0.0000
Error Per = 50 || Flushes = 26 || slicingInterval = 5000
--	Kid = 1 || L2 Acc = 426013, -- Miss = 0, rate = 0.0000, -- PendHits = 0, rate = 0.0000-- ResFail = 0, rate = 0.0000
Error Per = 50 || Flushes = 0 || slicingInterval = 5000
--------------------------------------------------------------
L2 access stats (for 7'th subPartition) 
--	Kid = 0 || L2 Acc = 415023, -- Miss = 1345, rate = 0.0032, -- PendHits = 390, rate = 0.0009-- ResFail = 242, rate = 0.0006
Error Per = 50 || Flushes = 26 || slicingInterval = 5000
--	Kid = 1 || L2 Acc = 415029, -- Miss = 0, rate = 0.0000, -- PendHits = 0, rate = 0.0000-- ResFail = 0, rate = 0.0000
Error Per = 50 || Flushes = 0 || slicingInterval = 5000
--------------------------------------------------------------
L2 access stats (for 8'th subPartition) 
--	Kid = 0 || L2 Acc = 435942, -- Miss = 1351, rate = 0.0031, -- PendHits = 188, rate = 0.0004-- ResFail = 113, rate = 0.0003
Error Per = 50 || Flushes = 27 || slicingInterval = 5000
--	Kid = 1 || L2 Acc = 434697, -- Miss = 0, rate = 0.0000, -- PendHits = 0, rate = 0.0000-- ResFail = 0, rate = 0.0000
Error Per = 50 || Flushes = 0 || slicingInterval = 5000
--------------------------------------------------------------
L2 access stats (for 9'th subPartition) 
--	Kid = 0 || L2 Acc = 418163, -- Miss = 1351, rate = 0.0032, -- PendHits = 278, rate = 0.0007-- ResFail = 0, rate = 0.0000
Error Per = 50 || Flushes = 27 || slicingInterval = 5000
--	Kid = 1 || L2 Acc = 418012, -- Miss = 0, rate = 0.0000, -- PendHits = 0, rate = 0.0000-- ResFail = 0, rate = 0.0000
Error Per = 50 || Flushes = 0 || slicingInterval = 5000
--------------------------------------------------------------
L2 access stats (for 10'th subPartition) 
--	Kid = 0 || L2 Acc = 418610, -- Miss = 1343, rate = 0.0032, -- PendHits = 537, rate = 0.0013-- ResFail = 3527, rate = 0.0084
Error Per = 50 || Flushes = 26 || slicingInterval = 5000
--	Kid = 1 || L2 Acc = 418712, -- Miss = 0, rate = 0.0000, -- PendHits = 0, rate = 0.0000-- ResFail = 0, rate = 0.0000
Error Per = 50 || Flushes = 0 || slicingInterval = 5000
--------------------------------------------------------------
L2 access stats (for 11'th subPartition) 
--	Kid = 0 || L2 Acc = 404447, -- Miss = 1347, rate = 0.0033, -- PendHits = 318, rate = 0.0008-- ResFail = 0, rate = 0.0000
Error Per = 50 || Flushes = 26 || slicingInterval = 5000
--	Kid = 1 || L2 Acc = 404515, -- Miss = 0, rate = 0.0000, -- PendHits = 0, rate = 0.0000-- ResFail = 0, rate = 0.0000
Error Per = 50 || Flushes = 0 || slicingInterval = 5000
--------------------------------------------------------------
L2 access stats (for 12'th subPartition) 
--	Kid = 0 || L2 Acc = 436886, -- Miss = 1343, rate = 0.0031, -- PendHits = 730, rate = 0.0017-- ResFail = 11791, rate = 0.0270
Error Per = 50 || Flushes = 26 || slicingInterval = 5000
--	Kid = 1 || L2 Acc = 436894, -- Miss = 0, rate = 0.0000, -- PendHits = 0, rate = 0.0000-- ResFail = 0, rate = 0.0000
Error Per = 50 || Flushes = 0 || slicingInterval = 5000
--------------------------------------------------------------
L2 access stats (for 13'th subPartition) 
--	Kid = 0 || L2 Acc = 404096, -- Miss = 1347, rate = 0.0033, -- PendHits = 355, rate = 0.0009-- ResFail = 0, rate = 0.0000
Error Per = 50 || Flushes = 26 || slicingInterval = 5000
--	Kid = 1 || L2 Acc = 404096, -- Miss = 0, rate = 0.0000, -- PendHits = 0, rate = 0.0000-- ResFail = 0, rate = 0.0000
Error Per = 50 || Flushes = 0 || slicingInterval = 5000
--------------------------------------------------------------
L2 access stats (for 14'th subPartition) 
--	Kid = 0 || L2 Acc = 425518, -- Miss = 1348, rate = 0.0032, -- PendHits = 350, rate = 0.0008-- ResFail = 0, rate = 0.0000
Error Per = 50 || Flushes = 26 || slicingInterval = 5000
--	Kid = 1 || L2 Acc = 425509, -- Miss = 0, rate = 0.0000, -- PendHits = 0, rate = 0.0000-- ResFail = 0, rate = 0.0000
Error Per = 50 || Flushes = 0 || slicingInterval = 5000
--------------------------------------------------------------
L2 access stats (for 15'th subPartition) 
--	Kid = 0 || L2 Acc = 415087, -- Miss = 1344, rate = 0.0032, -- PendHits = 385, rate = 0.0009-- ResFail = 182, rate = 0.0004
Error Per = 50 || Flushes = 26 || slicingInterval = 5000
--	Kid = 1 || L2 Acc = 415092, -- Miss = 0, rate = 0.0000, -- PendHits = 0, rate = 0.0000-- ResFail = 0, rate = 0.0000
Error Per = 50 || Flushes = 0 || slicingInterval = 5000
--------------------------------------------------------------
L2 access stats (for 16'th subPartition) 
--	Kid = 0 || L2 Acc = 427335, -- Miss = 1348, rate = 0.0032, -- PendHits = 188, rate = 0.0004-- ResFail = 0, rate = 0.0000
Error Per = 50 || Flushes = 26 || slicingInterval = 5000
--	Kid = 1 || L2 Acc = 427578, -- Miss = 0, rate = 0.0000, -- PendHits = 0, rate = 0.0000-- ResFail = 0, rate = 0.0000
Error Per = 50 || Flushes = 0 || slicingInterval = 5000
--------------------------------------------------------------
L2 access stats (for 17'th subPartition) 
--	Kid = 0 || L2 Acc = 414779, -- Miss = 1349, rate = 0.0033, -- PendHits = 283, rate = 0.0007-- ResFail = 0, rate = 0.0000
Error Per = 50 || Flushes = 26 || slicingInterval = 5000
--	Kid = 1 || L2 Acc = 414754, -- Miss = 0, rate = 0.0000, -- PendHits = 0, rate = 0.0000-- ResFail = 0, rate = 0.0000
Error Per = 50 || Flushes = 0 || slicingInterval = 5000
--------------------------------------------------------------
L2 access stats (for 18'th subPartition) 
--	Kid = 0 || L2 Acc = 415034, -- Miss = 1344, rate = 0.0032, -- PendHits = 535, rate = 0.0013-- ResFail = 3707, rate = 0.0089
Error Per = 50 || Flushes = 26 || slicingInterval = 5000
--	Kid = 1 || L2 Acc = 415023, -- Miss = 0, rate = 0.0000, -- PendHits = 0, rate = 0.0000-- ResFail = 0, rate = 0.0000
Error Per = 50 || Flushes = 0 || slicingInterval = 5000
--------------------------------------------------------------
L2 access stats (for 19'th subPartition) 
--	Kid = 0 || L2 Acc = 404074, -- Miss = 1350, rate = 0.0033, -- PendHits = 317, rate = 0.0008-- ResFail = 0, rate = 0.0000
Error Per = 50 || Flushes = 27 || slicingInterval = 5000
--	Kid = 1 || L2 Acc = 404118, -- Miss = 0, rate = 0.0000, -- PendHits = 0, rate = 0.0000-- ResFail = 0, rate = 0.0000
Error Per = 50 || Flushes = 0 || slicingInterval = 5000
--------------------------------------------------------------
L2 access stats (for 20'th subPartition) 
--	Kid = 0 || L2 Acc = 436884, -- Miss = 1341, rate = 0.0031, -- PendHits = 732, rate = 0.0017-- ResFail = 11963, rate = 0.0274
Error Per = 50 || Flushes = 26 || slicingInterval = 5000
--	Kid = 1 || L2 Acc = 436903, -- Miss = 0, rate = 0.0000, -- PendHits = 0, rate = 0.0000-- ResFail = 0, rate = 0.0000
Error Per = 50 || Flushes = 0 || slicingInterval = 5000
--------------------------------------------------------------
L2 access stats (for 21'th subPartition) 
--	Kid = 0 || L2 Acc = 404160, -- Miss = 1343, rate = 0.0033, -- PendHits = 354, rate = 0.0009-- ResFail = 0, rate = 0.0000
Error Per = 50 || Flushes = 26 || slicingInterval = 5000
--	Kid = 1 || L2 Acc = 404160, -- Miss = 0, rate = 0.0000, -- PendHits = 0, rate = 0.0000-- ResFail = 0, rate = 0.0000
Error Per = 50 || Flushes = 0 || slicingInterval = 5000
--------------------------------------------------------------
L2 access stats (for 22'th subPartition) 
--	Kid = 0 || L2 Acc = 425516, -- Miss = 1347, rate = 0.0032, -- PendHits = 350, rate = 0.0008-- ResFail = 0, rate = 0.0000
Error Per = 50 || Flushes = 26 || slicingInterval = 5000
--	Kid = 1 || L2 Acc = 425519, -- Miss = 0, rate = 0.0000, -- PendHits = 0, rate = 0.0000-- ResFail = 0, rate = 0.0000
Error Per = 50 || Flushes = 0 || slicingInterval = 5000
--------------------------------------------------------------
L2 access stats (for 23'th subPartition) 
--	Kid = 0 || L2 Acc = 415023, -- Miss = 1345, rate = 0.0032, -- PendHits = 398, rate = 0.0010-- ResFail = 242, rate = 0.0006
Error Per = 50 || Flushes = 26 || slicingInterval = 5000
--	Kid = 1 || L2 Acc = 415029, -- Miss = 0, rate = 0.0000, -- PendHits = 0, rate = 0.0000-- ResFail = 0, rate = 0.0000
Error Per = 50 || Flushes = 0 || slicingInterval = 5000
8c87128bf66ba0d1cbe99be051d9f832  /home/pars/Documents/expSetups/a13/GRU_L2_50_K0
Extracting PTX file and ptxas options    1: GRU_L2_50_K0.1.sm_75.ptx -arch=sm_75
GPGPU-Sim uArch: performance model initialization complete.
Parallel calisiyor
self exe links to: /home/pars/Documents/expSetups/a13/GRU_L2_50_K0
self exe links to: /home/pars/Documents/expSetups/a13/GRU_L2_50_K0
11.0
GPGPU-Sim PTX: __cudaRegisterFatBinary, fat_cubin_handle = 1, filename=default
self exe links to: /home/pars/Documents/expSetups/a13/GRU_L2_50_K0
Running md5sum using "md5sum /home/pars/Documents/expSetups/a13/GRU_L2_50_K0 "
self exe links to: /home/pars/Documents/expSetups/a13/GRU_L2_50_K0
Extracting specific PTX file named GRU_L2_50_K0.1.sm_75.ptx 
GPGPU-Sim PTX: __cudaRegisterFunction _Z20GPU_forward_pass_gruPfS_S_S_S_S_S_S_S_S_S_ : hostFun 0x0x55f28e052865, fat_cubin_handle = 1
GPGPU-Sim PTX: Parsing GRU_L2_50_K0.1.sm_75.ptx
GPGPU-Sim PTX: allocating shared region for "_ZZ20GPU_forward_pass_gruPfS_S_S_S_S_S_S_S_S_S_E11update_gate" from 0x0 to 0x190 (shared memory space)
GPGPU-Sim PTX: instruction assembly for function '_Z20GPU_forward_pass_gruPfS_S_S_S_S_S_S_S_S_S_'...   done.
GPGPU-Sim PTX: finished parsing EMBEDDED .ptx file GRU_L2_50_K0.1.sm_75.ptx
GPGPU-Sim PTX: loading globals with explicit initializers... 
GPGPU-Sim PTX: finished loading globals (0 bytes total).
GPGPU-Sim PTX: loading constants with explicit initializers...  done.
GPGPU-Sim PTX: Loading PTXInfo from GRU_L2_50_K0.1.sm_75.ptx
GPGPU-Sim PTX: Kernel '_Z20GPU_forward_pass_gruPfS_S_S_S_S_S_S_S_S_S_' : regs=72, lmem=0, smem=400, cmem=440
 Gates,bias, candidate_gates,candidate_bias, o_weights :: 20200 200 10100 100 100
data/kernel_h.txt
 File FOUND data/kernel_h.txt
Final Count : 100
data/kernel_r.txt
 File FOUND data/kernel_r.txt
Final Count : 100
data/kernel_z.txt
 File FOUND data/kernel_z.txt
Final Count : 100
data/bias_h.txt
 File FOUND data/bias_h.txt
Final Count : 100
data/bias_r.txt
 File FOUND data/bias_r.txt
Final Count : 100
data/bias_z.txt
 File FOUND data/bias_z.txt
Final Count : 100
data/recurrent_kernel_h.txt
 File FOUND data/recurrent_kernel_h.txt
Final Count : 10000
data/recurrent_kernel_r.txt
 File FOUND data/recurrent_kernel_r.txt
Final Count : 10000
data/recurrent_kernel_z.txt
 File FOUND data/recurrent_kernel_z.txt
Final Count : 10000
data/dense_kernel.txt
 File FOUND data/dense_kernel.txt
Final Count : 100
data/dense_bias.txt
 File FOUND data/dense_bias.txt
Final Count : 1
Invoke GPU kernel
GPGPU-Sim PTX: Setting up arguments for 8 bytes starting at 0x7ffdc6d81118..
GPGPU-Sim PTX: Setting up arguments for 8 bytes starting at 0x7ffdc6d81110..
GPGPU-Sim PTX: Setting up arguments for 8 bytes starting at 0x7ffdc6d81108..
GPGPU-Sim PTX: Setting up arguments for 8 bytes starting at 0x7ffdc6d81100..
GPGPU-Sim PTX: Setting up arguments for 8 bytes starting at 0x7ffdc6d810f8..
GPGPU-Sim PTX: Setting up arguments for 8 bytes starting at 0x7ffdc6d810f0..
GPGPU-Sim PTX: Setting up arguments for 8 bytes starting at 0x7ffdc6d810e8..
GPGPU-Sim PTX: Setting up arguments for 8 bytes starting at 0x7ffdc6d810e0..
GPGPU-Sim PTX: Setting up arguments for 8 bytes starting at 0x7ffdc6d810d8..
GPGPU-Sim PTX: Setting up arguments for 8 bytes starting at 0x7ffdc6d810d0..
GPGPU-Sim PTX: Setting up arguments for 8 bytes starting at 0x7ffdc6d810c8..

GPGPU-Sim PTX: cudaLaunch for 0x0x55f28e052865 (mode=performance simulation) on stream 0
GPGPU-Sim PTX: finding reconvergence points for '_Z20GPU_forward_pass_gruPfS_S_S_S_S_S_S_S_S_S_'...
GPGPU-Sim PTX: Finding dominators for '_Z20GPU_forward_pass_gruPfS_S_S_S_S_S_S_S_S_S_'...
GPGPU-Sim PTX: Finding immediate dominators for '_Z20GPU_forward_pass_gruPfS_S_S_S_S_S_S_S_S_S_'...
GPGPU-Sim PTX: Finding postdominators for '_Z20GPU_forward_pass_gruPfS_S_S_S_S_S_S_S_S_S_'...
GPGPU-Sim PTX: Finding immediate postdominators for '_Z20GPU_forward_pass_gruPfS_S_S_S_S_S_S_S_S_S_'...
GPGPU-Sim PTX: pre-decoding instructions for '_Z20GPU_forward_pass_gruPfS_S_S_S_S_S_S_S_S_S_'...
GPGPU-Sim PTX: reconvergence points for _Z20GPU_forward_pass_gruPfS_S_S_S_S_S_S_S_S_S_...
GPGPU-Sim PTX:  1 (potential) branch divergence @  PC=0x1b8 (GRU_L2_50_K0.1.sm_75.ptx:95) @%p1 bra $L__BB0_1;
GPGPU-Sim PTX:    immediate post dominator      @  PC=0x1c0 (GRU_L2_50_K0.1.sm_75.ptx:97) mul.wide.s32 %rd35, %r1, 4;
GPGPU-Sim PTX:  2 (potential) branch divergence @  PC=0x228 (GRU_L2_50_K0.1.sm_75.ptx:110) @%p2 bra $L__BB0_5;
GPGPU-Sim PTX:    immediate post dominator      @  PC=0x260 (GRU_L2_50_K0.1.sm_75.ptx:121) cvta.to.global.u64 %rd39, %rd23;
GPGPU-Sim PTX:  3 (potential) branch divergence @  PC=0x240 (GRU_L2_50_K0.1.sm_75.ptx:114) @%p3 bra $L__BB0_5;
GPGPU-Sim PTX:    immediate post dominator      @  PC=0x260 (GRU_L2_50_K0.1.sm_75.ptx:121) cvta.to.global.u64 %rd39, %rd23;
GPGPU-Sim PTX:  4 (potential) branch divergence @  PC=0x2a8 (GRU_L2_50_K0.1.sm_75.ptx:130) @%p4 bra $L__BB0_8;
GPGPU-Sim PTX:    immediate post dominator      @  PC=0x2e0 (GRU_L2_50_K0.1.sm_75.ptx:141) cvta.to.global.u64 %rd43, %rd25;
GPGPU-Sim PTX:  5 (potential) branch divergence @  PC=0x2c0 (GRU_L2_50_K0.1.sm_75.ptx:134) @%p5 bra $L__BB0_8;
GPGPU-Sim PTX:    immediate post dominator      @  PC=0x2e0 (GRU_L2_50_K0.1.sm_75.ptx:141) cvta.to.global.u64 %rd43, %rd25;
GPGPU-Sim PTX:  6 (potential) branch divergence @  PC=0x400 (GRU_L2_50_K0.1.sm_75.ptx:179) @%p6 bra $L__BB0_9;
GPGPU-Sim PTX:    immediate post dominator      @  PC=0x408 (GRU_L2_50_K0.1.sm_75.ptx:181) ld.global.f32 %f69, [%rd14];
GPGPU-Sim PTX:  7 (potential) branch divergence @  PC=0x450 (GRU_L2_50_K0.1.sm_75.ptx:190) @%p7 bra $L__BB0_12;
GPGPU-Sim PTX:    immediate post dominator      @  PC=0x530 (GRU_L2_50_K0.1.sm_75.ptx:224) add.s64 %rd49, %rd1, %rd35;
GPGPU-Sim PTX:  8 (potential) branch divergence @  PC=0x458 (GRU_L2_50_K0.1.sm_75.ptx:191) bra.uni $L__BB0_11;
GPGPU-Sim PTX:    immediate post dominator      @  PC=0x4c0 (GRU_L2_50_K0.1.sm_75.ptx:208) mul.f32 %f73, %f15, 0f4038AA3B;
GPGPU-Sim PTX:  9 (potential) branch divergence @  PC=0x4b8 (GRU_L2_50_K0.1.sm_75.ptx:205) bra.uni $L__BB0_13;
GPGPU-Sim PTX:    immediate post dominator      @  PC=0x530 (GRU_L2_50_K0.1.sm_75.ptx:224) add.s64 %rd49, %rd1, %rd35;
GPGPU-Sim PTX: ... end of reconvergence points for _Z20GPU_forward_pass_gruPfS_S_S_S_S_S_S_S_S_S_
GPGPU-Sim PTX: ... done pre-decoding instructions for '_Z20GPU_forward_pass_gruPfS_S_S_S_S_S_S_S_S_S_'.
GPGPU-Sim PTX: pushing kernel '_Z20GPU_forward_pass_gruPfS_S_S_S_S_S_S_S_S_S_' to stream 0, gridDim= (64,1,1) blockDim = (512,1,1) 
GPGPU-Sim uArch: Shader 0 bind to kernel 1 '_Z20GPU_forward_pass_gruPfS_S_S_S_S_S_S_S_S_S_'
GPGPU-Sim uArch: CTA/core = 1, limited by: regs
GPGPU-Sim: Reconfigure L1 cache to 64KB
GPGPU-Sim uArch: Shader 1 bind to kernel 1 '_Z20GPU_forward_pass_gruPfS_S_S_S_S_S_S_S_S_S_'
GPGPU-Sim uArch: Shader 2 bind to kernel 1 '_Z20GPU_forward_pass_gruPfS_S_S_S_S_S_S_S_S_S_'
GPGPU-Sim uArch: Shader 3 bind to kernel 1 '_Z20GPU_forward_pass_gruPfS_S_S_S_S_S_S_S_S_S_'
GPGPU-Sim uArch: Shader 4 bind to kernel 1 '_Z20GPU_forward_pass_gruPfS_S_S_S_S_S_S_S_S_S_'
GPGPU-Sim uArch: Shader 5 bind to kernel 1 '_Z20GPU_forward_pass_gruPfS_S_S_S_S_S_S_S_S_S_'
GPGPU-Sim uArch: Shader 6 bind to kernel 1 '_Z20GPU_forward_pass_gruPfS_S_S_S_S_S_S_S_S_S_'
GPGPU-Sim uArch: Shader 7 bind to kernel 1 '_Z20GPU_forward_pass_gruPfS_S_S_S_S_S_S_S_S_S_'
GPGPU-Sim uArch: Shader 8 bind to kernel 1 '_Z20GPU_forward_pass_gruPfS_S_S_S_S_S_S_S_S_S_'
GPGPU-Sim uArch: Shader 9 bind to kernel 1 '_Z20GPU_forward_pass_gruPfS_S_S_S_S_S_S_S_S_S_'
GPGPU-Sim uArch: Shader 10 bind to kernel 1 '_Z20GPU_forward_pass_gruPfS_S_S_S_S_S_S_S_S_S_'
GPGPU-Sim uArch: Shader 11 bind to kernel 1 '_Z20GPU_forward_pass_gruPfS_S_S_S_S_S_S_S_S_S_'
GPGPU-Sim uArch: Shader 12 bind to kernel 1 '_Z20GPU_forward_pass_gruPfS_S_S_S_S_S_S_S_S_S_'
GPGPU-Sim uArch: Shader 13 bind to kernel 1 '_Z20GPU_forward_pass_gruPfS_S_S_S_S_S_S_S_S_S_'
GPGPU-Sim uArch: Shader 14 bind to kernel 1 '_Z20GPU_forward_pass_gruPfS_S_S_S_S_S_S_S_S_S_'
GPGPU-Sim uArch: Shader 15 bind to kernel 1 '_Z20GPU_forward_pass_gruPfS_S_S_S_S_S_S_S_S_S_'
GPGPU-Sim uArch: Shader 16 bind to kernel 1 '_Z20GPU_forward_pass_gruPfS_S_S_S_S_S_S_S_S_S_'
GPGPU-Sim uArch: Shader 17 bind to kernel 1 '_Z20GPU_forward_pass_gruPfS_S_S_S_S_S_S_S_S_S_'
GPGPU-Sim uArch: Shader 18 bind to kernel 1 '_Z20GPU_forward_pass_gruPfS_S_S_S_S_S_S_S_S_S_'
GPGPU-Sim uArch: Shader 19 bind to kernel 1 '_Z20GPU_forward_pass_gruPfS_S_S_S_S_S_S_S_S_S_'
GPGPU-Sim uArch: Shader 20 bind to kernel 1 '_Z20GPU_forward_pass_gruPfS_S_S_S_S_S_S_S_S_S_'
GPGPU-Sim uArch: Shader 21 bind to kernel 1 '_Z20GPU_forward_pass_gruPfS_S_S_S_S_S_S_S_S_S_'
GPGPU-Sim uArch: Shader 22 bind to kernel 1 '_Z20GPU_forward_pass_gruPfS_S_S_S_S_S_S_S_S_S_'
GPGPU-Sim uArch: Shader 23 bind to kernel 1 '_Z20GPU_forward_pass_gruPfS_S_S_S_S_S_S_S_S_S_'
GPGPU-Sim uArch: Shader 24 bind to kernel 1 '_Z20GPU_forward_pass_gruPfS_S_S_S_S_S_S_S_S_S_'
GPGPU-Sim uArch: Shader 25 bind to kernel 1 '_Z20GPU_forward_pass_gruPfS_S_S_S_S_S_S_S_S_S_'
GPGPU-Sim uArch: Shader 26 bind to kernel 1 '_Z20GPU_forward_pass_gruPfS_S_S_S_S_S_S_S_S_S_'
GPGPU-Sim uArch: Shader 27 bind to kernel 1 '_Z20GPU_forward_pass_gruPfS_S_S_S_S_S_S_S_S_S_'
GPGPU-Sim uArch: Shader 28 bind to kernel 1 '_Z20GPU_forward_pass_gruPfS_S_S_S_S_S_S_S_S_S_'
GPGPU-Sim uArch: Shader 29 bind to kernel 1 '_Z20GPU_forward_pass_gruPfS_S_S_S_S_S_S_S_S_S_'
Simulation cycle for kernel 0 is = 10000
Simulation cycle for kernel 0 is = 15000
Simulation cycle for kernel 0 is = 20000
Simulation cycle for kernel 0 is = 25000
Simulation cycle for kernel 0 is = 30000
Simulation cycle for kernel 0 is = 35000
Simulation cycle for kernel 0 is = 40000
Simulation cycle for kernel 0 is = 45000
Simulation cycle for kernel 0 is = 50000
Simulation cycle for kernel 0 is = 55000
Simulation cycle for kernel 0 is = 60000
Simulation cycle for kernel 0 is = 65000
Simulation cycle for kernel 0 is = 70000
Simulation cycle for kernel 0 is = 75000
Simulation cycle for kernel 0 is = 80000
Simulation cycle for kernel 0 is = 85000
Simulation cycle for kernel 0 is = 90000
Simulation cycle for kernel 0 is = 95000
Simulation cycle for kernel 0 is = 100000
Simulation cycle for kernel 0 is = 105000
Simulation cycle for kernel 0 is = 110000
Simulation cycle for kernel 0 is = 115000
Simulation cycle for kernel 0 is = 120000
Simulation cycle for kernel 0 is = 125000
Simulation cycle for kernel 0 is = 130000
Simulation cycle for kernel 0 is = 135000
Simulation cycle for kernel 0 is = 140000
Simulation cycle for kernel 0 is = 145000
Simulation cycle for kernel 0 is = 150000
Simulation cycle for kernel 0 is = 155000
Simulation cycle for kernel 0 is = 160000
Simulation cycle for kernel 0 is = 165000
Simulation cycle for kernel 0 is = 170000
Simulation cycle for kernel 0 is = 175000
Simulation cycle for kernel 0 is = 180000
Simulation cycle for kernel 0 is = 185000
Simulation cycle for kernel 0 is = 190000
Simulation cycle for kernel 0 is = 195000
Simulation cycle for kernel 0 is = 200000
Simulation cycle for kernel 0 is = 205000
Simulation cycle for kernel 0 is = 210000
Simulation cycle for kernel 0 is = 215000
Simulation cycle for kernel 0 is = 220000
Simulation cycle for kernel 0 is = 225000
Simulation cycle for kernel 0 is = 230000
Simulation cycle for kernel 0 is = 235000
Simulation cycle for kernel 0 is = 240000
Simulation cycle for kernel 0 is = 245000
Simulation cycle for kernel 0 is = 250000
Simulation cycle for kernel 0 is = 255000
Simulation cycle for kernel 0 is = 260000
Simulation cycle for kernel 0 is = 265000
Simulation cycle for kernel 0 is = 270000
Simulation cycle for kernel 0 is = 275000
Simulation cycle for kernel 0 is = 280000
Simulation cycle for kernel 0 is = 285000
Simulation cycle for kernel 0 is = 290000
Simulation cycle for kernel 0 is = 295000
Simulation cycle for kernel 0 is = 300000
Simulation cycle for kernel 0 is = 305000
Simulation cycle for kernel 0 is = 310000
Simulation cycle for kernel 0 is = 315000
Simulation cycle for kernel 0 is = 320000
Simulation cycle for kernel 0 is = 325000
Simulation cycle for kernel 0 is = 330000
Simulation cycle for kernel 0 is = 335000
Simulation cycle for kernel 0 is = 340000
Simulation cycle for kernel 0 is = 345000
Simulation cycle for kernel 0 is = 350000
Simulation cycle for kernel 0 is = 355000
Simulation cycle for kernel 0 is = 360000
Simulation cycle for kernel 0 is = 365000
Simulation cycle for kernel 0 is = 370000
Simulation cycle for kernel 0 is = 375000
Simulation cycle for kernel 0 is = 380000
Simulation cycle for kernel 0 is = 385000
Simulation cycle for kernel 0 is = 390000
Simulation cycle for kernel 0 is = 395000
Simulation cycle for kernel 0 is = 400000
GPGPU-Sim uArch: Shader 23 bind to kernel 1 '_Z20GPU_forward_pass_gruPfS_S_S_S_S_S_S_S_S_S_'
Simulation cycle for kernel 0 is = 405000
Simulation cycle for kernel 0 is = 410000
Simulation cycle for kernel 0 is = 415000
Simulation cycle for kernel 0 is = 420000
Simulation cycle for kernel 0 is = 425000
Simulation cycle for kernel 0 is = 430000
GPGPU-Sim uArch: Shader 25 bind to kernel 1 '_Z20GPU_forward_pass_gruPfS_S_S_S_S_S_S_S_S_S_'
Simulation cycle for kernel 0 is = 435000
GPGPU-Sim uArch: Shader 19 bind to kernel 1 '_Z20GPU_forward_pass_gruPfS_S_S_S_S_S_S_S_S_S_'
GPGPU-Sim uArch: Shader 26 bind to kernel 1 '_Z20GPU_forward_pass_gruPfS_S_S_S_S_S_S_S_S_S_'
GPGPU-Sim uArch: Shader 6 bind to kernel 1 '_Z20GPU_forward_pass_gruPfS_S_S_S_S_S_S_S_S_S_'
Simulation cycle for kernel 0 is = 440000
Simulation cycle for kernel 0 is = 445000
GPGPU-Sim uArch: Shader 8 bind to kernel 1 '_Z20GPU_forward_pass_gruPfS_S_S_S_S_S_S_S_S_S_'
Simulation cycle for kernel 0 is = 450000
GPGPU-Sim uArch: Shader 16 bind to kernel 1 '_Z20GPU_forward_pass_gruPfS_S_S_S_S_S_S_S_S_S_'
Simulation cycle for kernel 0 is = 455000
GPGPU-Sim uArch: Shader 17 bind to kernel 1 '_Z20GPU_forward_pass_gruPfS_S_S_S_S_S_S_S_S_S_'
GPGPU-Sim uArch: Shader 9 bind to kernel 1 '_Z20GPU_forward_pass_gruPfS_S_S_S_S_S_S_S_S_S_'
GPGPU-Sim uArch: Shader 1 bind to kernel 1 '_Z20GPU_forward_pass_gruPfS_S_S_S_S_S_S_S_S_S_'
Simulation cycle for kernel 0 is = 460000
GPGPU-Sim uArch: Shader 3 bind to kernel 1 '_Z20GPU_forward_pass_gruPfS_S_S_S_S_S_S_S_S_S_'
GPGPU-Sim uArch: Shader 0 bind to kernel 1 '_Z20GPU_forward_pass_gruPfS_S_S_S_S_S_S_S_S_S_'
GPGPU-Sim uArch: Shader 20 bind to kernel 1 '_Z20GPU_forward_pass_gruPfS_S_S_S_S_S_S_S_S_S_'
Simulation cycle for kernel 0 is = 465000
Simulation cycle for kernel 0 is = 470000
GPGPU-Sim uArch: Shader 21 bind to kernel 1 '_Z20GPU_forward_pass_gruPfS_S_S_S_S_S_S_S_S_S_'
Simulation cycle for kernel 0 is = 475000
Simulation cycle for kernel 0 is = 480000
GPGPU-Sim uArch: Shader 11 bind to kernel 1 '_Z20GPU_forward_pass_gruPfS_S_S_S_S_S_S_S_S_S_'
GPGPU-Sim uArch: Shader 22 bind to kernel 1 '_Z20GPU_forward_pass_gruPfS_S_S_S_S_S_S_S_S_S_'
Simulation cycle for kernel 0 is = 485000
GPGPU-Sim uArch: Shader 27 bind to kernel 1 '_Z20GPU_forward_pass_gruPfS_S_S_S_S_S_S_S_S_S_'
Simulation cycle for kernel 0 is = 490000
GPGPU-Sim uArch: Shader 24 bind to kernel 1 '_Z20GPU_forward_pass_gruPfS_S_S_S_S_S_S_S_S_S_'
GPGPU-Sim uArch: Shader 15 bind to kernel 1 '_Z20GPU_forward_pass_gruPfS_S_S_S_S_S_S_S_S_S_'
Simulation cycle for kernel 0 is = 495000
GPGPU-Sim uArch: Shader 5 bind to kernel 1 '_Z20GPU_forward_pass_gruPfS_S_S_S_S_S_S_S_S_S_'
GPGPU-Sim uArch: Shader 29 bind to kernel 1 '_Z20GPU_forward_pass_gruPfS_S_S_S_S_S_S_S_S_S_'
GPGPU-Sim uArch: Shader 14 bind to kernel 1 '_Z20GPU_forward_pass_gruPfS_S_S_S_S_S_S_S_S_S_'
GPGPU-Sim uArch: Shader 7 bind to kernel 1 '_Z20GPU_forward_pass_gruPfS_S_S_S_S_S_S_S_S_S_'
GPGPU-Sim uArch: Shader 18 bind to kernel 1 '_Z20GPU_forward_pass_gruPfS_S_S_S_S_S_S_S_S_S_'
GPGPU-Sim uArch: Shader 28 bind to kernel 1 '_Z20GPU_forward_pass_gruPfS_S_S_S_S_S_S_S_S_S_'
Simulation cycle for kernel 0 is = 500000
GPGPU-Sim uArch: Shader 12 bind to kernel 1 '_Z20GPU_forward_pass_gruPfS_S_S_S_S_S_S_S_S_S_'
GPGPU-Sim uArch: Shader 2 bind to kernel 1 '_Z20GPU_forward_pass_gruPfS_S_S_S_S_S_S_S_S_S_'
Simulation cycle for kernel 0 is = 505000
Simulation cycle for kernel 0 is = 510000
Simulation cycle for kernel 0 is = 515000
Simulation cycle for kernel 0 is = 520000
Simulation cycle for kernel 0 is = 525000
GPGPU-Sim uArch: Shader 10 bind to kernel 1 '_Z20GPU_forward_pass_gruPfS_S_S_S_S_S_S_S_S_S_'
Simulation cycle for kernel 0 is = 530000
Simulation cycle for kernel 0 is = 535000
GPGPU-Sim uArch: Shader 13 bind to kernel 1 '_Z20GPU_forward_pass_gruPfS_S_S_S_S_S_S_S_S_S_'
Simulation cycle for kernel 0 is = 540000
Simulation cycle for kernel 0 is = 545000
Simulation cycle for kernel 0 is = 550000
Simulation cycle for kernel 0 is = 555000
Simulation cycle for kernel 0 is = 560000
GPGPU-Sim uArch: Shader 4 bind to kernel 1 '_Z20GPU_forward_pass_gruPfS_S_S_S_S_S_S_S_S_S_'
Simulation cycle for kernel 0 is = 565000
Simulation cycle for kernel 0 is = 570000
Simulation cycle for kernel 0 is = 575000
Simulation cycle for kernel 0 is = 580000
Simulation cycle for kernel 0 is = 585000
Simulation cycle for kernel 0 is = 590000
Simulation cycle for kernel 0 is = 595000
Simulation cycle for kernel 0 is = 600000
Simulation cycle for kernel 0 is = 605000
Simulation cycle for kernel 0 is = 610000
Simulation cycle for kernel 0 is = 615000
Simulation cycle for kernel 0 is = 620000
Simulation cycle for kernel 0 is = 625000
Simulation cycle for kernel 0 is = 630000
Simulation cycle for kernel 0 is = 635000
Simulation cycle for kernel 0 is = 640000
Simulation cycle for kernel 0 is = 645000
Simulation cycle for kernel 0 is = 650000
Simulation cycle for kernel 0 is = 655000
Simulation cycle for kernel 0 is = 660000
Simulation cycle for kernel 0 is = 665000
Simulation cycle for kernel 0 is = 670000
Simulation cycle for kernel 0 is = 675000
Simulation cycle for kernel 0 is = 680000
Simulation cycle for kernel 0 is = 685000
Simulation cycle for kernel 0 is = 690000
Simulation cycle for kernel 0 is = 695000
Simulation cycle for kernel 0 is = 700000
Simulation cycle for kernel 0 is = 705000
Simulation cycle for kernel 0 is = 710000
Simulation cycle for kernel 0 is = 715000
Simulation cycle for kernel 0 is = 720000
Simulation cycle for kernel 0 is = 725000
Simulation cycle for kernel 0 is = 730000
Simulation cycle for kernel 0 is = 735000
Simulation cycle for kernel 0 is = 740000
Simulation cycle for kernel 0 is = 745000
Simulation cycle for kernel 0 is = 750000
Simulation cycle for kernel 0 is = 755000
Simulation cycle for kernel 0 is = 760000
Simulation cycle for kernel 0 is = 765000
Simulation cycle for kernel 0 is = 770000
Simulation cycle for kernel 0 is = 775000
Simulation cycle for kernel 0 is = 780000
Simulation cycle for kernel 0 is = 785000
Simulation cycle for kernel 0 is = 790000
Simulation cycle for kernel 0 is = 795000
Simulation cycle for kernel 0 is = 800000
Simulation cycle for kernel 0 is = 805000
Simulation cycle for kernel 0 is = 810000
Simulation cycle for kernel 0 is = 815000
Simulation cycle for kernel 0 is = 820000
Simulation cycle for kernel 0 is = 825000
Simulation cycle for kernel 0 is = 830000
Simulation cycle for kernel 0 is = 835000
Simulation cycle for kernel 0 is = 840000
Simulation cycle for kernel 0 is = 845000
Simulation cycle for kernel 0 is = 850000
Simulation cycle for kernel 0 is = 855000
Simulation cycle for kernel 0 is = 860000
Simulation cycle for kernel 0 is = 865000
Simulation cycle for kernel 0 is = 870000
Simulation cycle for kernel 0 is = 875000
Simulation cycle for kernel 0 is = 880000
Simulation cycle for kernel 0 is = 885000
Simulation cycle for kernel 0 is = 890000
Simulation cycle for kernel 0 is = 895000
Simulation cycle for kernel 0 is = 900000
Simulation cycle for kernel 0 is = 905000
Simulation cycle for kernel 0 is = 910000
Simulation cycle for kernel 0 is = 915000
Simulation cycle for kernel 0 is = 920000
Simulation cycle for kernel 0 is = 925000
Simulation cycle for kernel 0 is = 930000
Simulation cycle for kernel 0 is = 935000
Simulation cycle for kernel 0 is = 940000
Simulation cycle for kernel 0 is = 945000
Simulation cycle for kernel 0 is = 950000
Simulation cycle for kernel 0 is = 955000
Simulation cycle for kernel 0 is = 960000
Simulation cycle for kernel 0 is = 965000
Simulation cycle for kernel 0 is = 970000
Simulation cycle for kernel 0 is = 975000
Simulation cycle for kernel 0 is = 980000
Simulation cycle for kernel 0 is = 985000
Simulation cycle for kernel 0 is = 990000
Simulation cycle for kernel 0 is = 995000
Simulation cycle for kernel 0 is = 1000000
Simulation cycle for kernel 0 is = 1005000
Simulation cycle for kernel 0 is = 1010000
Simulation cycle for kernel 0 is = 1015000
Simulation cycle for kernel 0 is = 1020000
Simulation cycle for kernel 0 is = 1025000
Simulation cycle for kernel 0 is = 1030000
Simulation cycle for kernel 0 is = 1035000
Simulation cycle for kernel 0 is = 1040000
Simulation cycle for kernel 0 is = 1045000
Simulation cycle for kernel 0 is = 1050000
Simulation cycle for kernel 0 is = 1055000
Simulation cycle for kernel 0 is = 1060000
Simulation cycle for kernel 0 is = 1065000
Simulation cycle for kernel 0 is = 1070000
Simulation cycle for kernel 0 is = 1075000
Simulation cycle for kernel 0 is = 1080000
Simulation cycle for kernel 0 is = 1085000
Simulation cycle for kernel 0 is = 1090000
Simulation cycle for kernel 0 is = 1095000
Simulation cycle for kernel 0 is = 1100000
Simulation cycle for kernel 0 is = 1105000
Simulation cycle for kernel 0 is = 1110000
Simulation cycle for kernel 0 is = 1115000
Simulation cycle for kernel 0 is = 1120000
Simulation cycle for kernel 0 is = 1125000
Simulation cycle for kernel 0 is = 1130000
Simulation cycle for kernel 0 is = 1135000
Simulation cycle for kernel 0 is = 1140000
Simulation cycle for kernel 0 is = 1145000
Simulation cycle for kernel 0 is = 1150000
Simulation cycle for kernel 0 is = 1155000
Simulation cycle for kernel 0 is = 1160000
Simulation cycle for kernel 0 is = 1165000
Simulation cycle for kernel 0 is = 1170000
Simulation cycle for kernel 0 is = 1175000
Simulation cycle for kernel 0 is = 1180000
Simulation cycle for kernel 0 is = 1185000
Simulation cycle for kernel 0 is = 1190000
Simulation cycle for kernel 0 is = 1195000
Simulation cycle for kernel 0 is = 1200000
Simulation cycle for kernel 0 is = 1205000
Simulation cycle for kernel 0 is = 1210000
Simulation cycle for kernel 0 is = 1215000
Simulation cycle for kernel 0 is = 1220000
Simulation cycle for kernel 0 is = 1225000
Simulation cycle for kernel 0 is = 1230000
Simulation cycle for kernel 0 is = 1235000
Simulation cycle for kernel 0 is = 1240000
Simulation cycle for kernel 0 is = 1245000
Simulation cycle for kernel 0 is = 1250000
Simulation cycle for kernel 0 is = 1255000
Simulation cycle for kernel 0 is = 1260000
Simulation cycle for kernel 0 is = 1265000
Simulation cycle for kernel 0 is = 1270000
Simulation cycle for kernel 0 is = 1275000
Simulation cycle for kernel 0 is = 1280000
Simulation cycle for kernel 0 is = 1285000
Simulation cycle for kernel 0 is = 1290000
Simulation cycle for kernel 0 is = 1295000
Simulation cycle for kernel 0 is = 1300000
Simulation cycle for kernel 0 is = 1305000
Simulation cycle for kernel 0 is = 1310000
Simulation cycle for kernel 0 is = 1315000
Simulation cycle for kernel 0 is = 1320000
Simulation cycle for kernel 0 is = 1325000
Simulation cycle for kernel 0 is = 1330000
Simulation cycle for kernel 0 is = 1335000
Simulation cycle for kernel 0 is = 1340000
Simulation cycle for kernel 0 is = 1345000
Simulation cycle for kernel 0 is = 1350000
Simulation cycle for kernel 0 is = 1355000
Simulation cycle for kernel 0 is = 1360000
Simulation cycle for kernel 0 is = 1365000
Simulation cycle for kernel 0 is = 1370000
Simulation cycle for kernel 0 is = 1375000
Simulation cycle for kernel 0 is = 1380000
Simulation cycle for kernel 0 is = 1385000
Simulation cycle for kernel 0 is = 1390000
Simulation cycle for kernel 0 is = 1395000
Simulation cycle for kernel 0 is = 1400000
Simulation cycle for kernel 0 is = 1405000
Simulation cycle for kernel 0 is = 1410000
Simulation cycle for kernel 0 is = 1415000
Simulation cycle for kernel 0 is = 1420000
Simulation cycle for kernel 0 is = 1425000
Simulation cycle for kernel 0 is = 1430000
Simulation cycle for kernel 0 is = 1435000
Simulation cycle for kernel 0 is = 1440000
Simulation cycle for kernel 0 is = 1445000
Simulation cycle for kernel 0 is = 1450000
Simulation cycle for kernel 0 is = 1455000
Simulation cycle for kernel 0 is = 1460000
Simulation cycle for kernel 0 is = 1465000
Simulation cycle for kernel 0 is = 1470000
Simulation cycle for kernel 0 is = 1475000
Simulation cycle for kernel 0 is = 1480000
Simulation cycle for kernel 0 is = 1485000
Simulation cycle for kernel 0 is = 1490000
Simulation cycle for kernel 0 is = 1495000
Simulation cycle for kernel 0 is = 1500000
Simulation cycle for kernel 0 is = 1505000
Simulation cycle for kernel 0 is = 1510000
Simulation cycle for kernel 0 is = 1515000
Simulation cycle for kernel 0 is = 1520000
Simulation cycle for kernel 0 is = 1525000
Simulation cycle for kernel 0 is = 1530000
Simulation cycle for kernel 0 is = 1535000
Simulation cycle for kernel 0 is = 1540000
Simulation cycle for kernel 0 is = 1545000
Simulation cycle for kernel 0 is = 1550000
Simulation cycle for kernel 0 is = 1555000
Simulation cycle for kernel 0 is = 1560000
Simulation cycle for kernel 0 is = 1565000
Simulation cycle for kernel 0 is = 1570000
Simulation cycle for kernel 0 is = 1575000
Simulation cycle for kernel 0 is = 1580000
Simulation cycle for kernel 0 is = 1585000
Simulation cycle for kernel 0 is = 1590000
Simulation cycle for kernel 0 is = 1595000
Simulation cycle for kernel 0 is = 1600000
Simulation cycle for kernel 0 is = 1605000
Simulation cycle for kernel 0 is = 1610000
Simulation cycle for kernel 0 is = 1615000
Simulation cycle for kernel 0 is = 1620000
Simulation cycle for kernel 0 is = 1625000
Simulation cycle for kernel 0 is = 1630000
Simulation cycle for kernel 0 is = 1635000
Simulation cycle for kernel 0 is = 1640000
Simulation cycle for kernel 0 is = 1645000
Simulation cycle for kernel 0 is = 1650000
Simulation cycle for kernel 0 is = 1655000
Simulation cycle for kernel 0 is = 1660000
Simulation cycle for kernel 0 is = 1665000
Simulation cycle for kernel 0 is = 1670000
Simulation cycle for kernel 0 is = 1675000
Simulation cycle for kernel 0 is = 1680000
Simulation cycle for kernel 0 is = 1685000
Simulation cycle for kernel 0 is = 1690000
Simulation cycle for kernel 0 is = 1695000
Simulation cycle for kernel 0 is = 1700000
Simulation cycle for kernel 0 is = 1705000
Simulation cycle for kernel 0 is = 1710000
Simulation cycle for kernel 0 is = 1715000
Simulation cycle for kernel 0 is = 1720000
Simulation cycle for kernel 0 is = 1725000
Simulation cycle for kernel 0 is = 1730000
Simulation cycle for kernel 0 is = 1735000
Simulation cycle for kernel 0 is = 1740000
Simulation cycle for kernel 0 is = 1745000
Simulation cycle for kernel 0 is = 1750000
Simulation cycle for kernel 0 is = 1755000
Simulation cycle for kernel 0 is = 1760000
Simulation cycle for kernel 0 is = 1765000
Simulation cycle for kernel 0 is = 1770000
Simulation cycle for kernel 0 is = 1775000
Simulation cycle for kernel 0 is = 1780000
Simulation cycle for kernel 0 is = 1785000
Simulation cycle for kernel 0 is = 1790000
Simulation cycle for kernel 0 is = 1795000
Simulation cycle for kernel 0 is = 1800000
Simulation cycle for kernel 0 is = 1805000
Simulation cycle for kernel 0 is = 1810000
Simulation cycle for kernel 0 is = 1815000
Simulation cycle for kernel 0 is = 1820000
Simulation cycle for kernel 0 is = 1825000
Simulation cycle for kernel 0 is = 1830000
Simulation cycle for kernel 0 is = 1835000
Simulation cycle for kernel 0 is = 1840000
Simulation cycle for kernel 0 is = 1845000
Simulation cycle for kernel 0 is = 1850000
Simulation cycle for kernel 0 is = 1855000
Simulation cycle for kernel 0 is = 1860000
Simulation cycle for kernel 0 is = 1865000
Simulation cycle for kernel 0 is = 1870000
Simulation cycle for kernel 0 is = 1875000
Simulation cycle for kernel 0 is = 1880000
Simulation cycle for kernel 0 is = 1885000
Simulation cycle for kernel 0 is = 1890000
Simulation cycle for kernel 0 is = 1895000
Simulation cycle for kernel 0 is = 1900000
Simulation cycle for kernel 0 is = 1905000
Simulation cycle for kernel 0 is = 1910000
Simulation cycle for kernel 0 is = 1915000
Simulation cycle for kernel 0 is = 1920000
Simulation cycle for kernel 0 is = 1925000
Simulation cycle for kernel 0 is = 1930000
Simulation cycle for kernel 0 is = 1935000
Simulation cycle for kernel 0 is = 1940000
Simulation cycle for kernel 0 is = 1945000
Simulation cycle for kernel 0 is = 1950000
Simulation cycle for kernel 0 is = 1955000
Simulation cycle for kernel 0 is = 1960000
Simulation cycle for kernel 0 is = 1965000
Simulation cycle for kernel 0 is = 1970000
Simulation cycle for kernel 0 is = 1975000
Simulation cycle for kernel 0 is = 1980000
Simulation cycle for kernel 0 is = 1985000
Simulation cycle for kernel 0 is = 1990000
Simulation cycle for kernel 0 is = 1995000
Simulation cycle for kernel 0 is = 2000000
Simulation cycle for kernel 0 is = 2005000
Simulation cycle for kernel 0 is = 2010000
Simulation cycle for kernel 0 is = 2015000
Simulation cycle for kernel 0 is = 2020000
Simulation cycle for kernel 0 is = 2025000
Simulation cycle for kernel 0 is = 2030000
Simulation cycle for kernel 0 is = 2035000
Simulation cycle for kernel 0 is = 2040000
Simulation cycle for kernel 0 is = 2045000
Simulation cycle for kernel 0 is = 2050000
Simulation cycle for kernel 0 is = 2055000
Simulation cycle for kernel 0 is = 2060000
Simulation cycle for kernel 0 is = 2065000
Simulation cycle for kernel 0 is = 2070000
Simulation cycle for kernel 0 is = 2075000
Simulation cycle for kernel 0 is = 2080000
Simulation cycle for kernel 0 is = 2085000
Simulation cycle for kernel 0 is = 2090000
Simulation cycle for kernel 0 is = 2095000
Simulation cycle for kernel 0 is = 2100000
Simulation cycle for kernel 0 is = 2105000
Simulation cycle for kernel 0 is = 2110000
Simulation cycle for kernel 0 is = 2115000
Simulation cycle for kernel 0 is = 2120000
Simulation cycle for kernel 0 is = 2125000
Simulation cycle for kernel 0 is = 2130000
Simulation cycle for kernel 0 is = 2135000
Simulation cycle for kernel 0 is = 2140000
Simulation cycle for kernel 0 is = 2145000
Simulation cycle for kernel 0 is = 2150000
Simulation cycle for kernel 0 is = 2155000
Simulation cycle for kernel 0 is = 2160000
Simulation cycle for kernel 0 is = 2165000
Simulation cycle for kernel 0 is = 2170000
Simulation cycle for kernel 0 is = 2175000
Simulation cycle for kernel 0 is = 2180000
Simulation cycle for kernel 0 is = 2185000
Simulation cycle for kernel 0 is = 2190000
Simulation cycle for kernel 0 is = 2195000
Simulation cycle for kernel 0 is = 2200000
Simulation cycle for kernel 0 is = 2205000
Simulation cycle for kernel 0 is = 2210000
Simulation cycle for kernel 0 is = 2215000
Simulation cycle for kernel 0 is = 2220000
Simulation cycle for kernel 0 is = 2225000
Simulation cycle for kernel 0 is = 2230000
Simulation cycle for kernel 0 is = 2235000
Simulation cycle for kernel 0 is = 2240000
Simulation cycle for kernel 0 is = 2245000
Simulation cycle for kernel 0 is = 2250000
Simulation cycle for kernel 0 is = 2255000
Simulation cycle for kernel 0 is = 2260000
Simulation cycle for kernel 0 is = 2265000
Simulation cycle for kernel 0 is = 2270000
Simulation cycle for kernel 0 is = 2275000
Simulation cycle for kernel 0 is = 2280000
Simulation cycle for kernel 0 is = 2285000
Simulation cycle for kernel 0 is = 2290000
Simulation cycle for kernel 0 is = 2295000
Simulation cycle for kernel 0 is = 2300000
Simulation cycle for kernel 0 is = 2305000
Simulation cycle for kernel 0 is = 2310000
Simulation cycle for kernel 0 is = 2315000
Simulation cycle for kernel 0 is = 2320000
Simulation cycle for kernel 0 is = 2325000
Simulation cycle for kernel 0 is = 2330000
Simulation cycle for kernel 0 is = 2335000
Simulation cycle for kernel 0 is = 2340000
Simulation cycle for kernel 0 is = 2345000
Simulation cycle for kernel 0 is = 2350000
Simulation cycle for kernel 0 is = 2355000
Simulation cycle for kernel 0 is = 2360000
Simulation cycle for kernel 0 is = 2365000
Simulation cycle for kernel 0 is = 2370000
Simulation cycle for kernel 0 is = 2375000
Simulation cycle for kernel 0 is = 2380000
Simulation cycle for kernel 0 is = 2385000
Simulation cycle for kernel 0 is = 2390000
Simulation cycle for kernel 0 is = 2395000
Simulation cycle for kernel 0 is = 2400000
Simulation cycle for kernel 0 is = 2405000
Simulation cycle for kernel 0 is = 2410000
Simulation cycle for kernel 0 is = 2415000
Simulation cycle for kernel 0 is = 2420000
Simulation cycle for kernel 0 is = 2425000
Simulation cycle for kernel 0 is = 2430000
Simulation cycle for kernel 0 is = 2435000
Simulation cycle for kernel 0 is = 2440000
Simulation cycle for kernel 0 is = 2445000
Simulation cycle for kernel 0 is = 2450000
Simulation cycle for kernel 0 is = 2455000
Simulation cycle for kernel 0 is = 2460000
Simulation cycle for kernel 0 is = 2465000
Simulation cycle for kernel 0 is = 2470000
Simulation cycle for kernel 0 is = 2475000
Simulation cycle for kernel 0 is = 2480000
Simulation cycle for kernel 0 is = 2485000
Simulation cycle for kernel 0 is = 2490000
Simulation cycle for kernel 0 is = 2495000
Simulation cycle for kernel 0 is = 2500000
Simulation cycle for kernel 0 is = 2505000
Simulation cycle for kernel 0 is = 2510000
Simulation cycle for kernel 0 is = 2515000
Simulation cycle for kernel 0 is = 2520000
Simulation cycle for kernel 0 is = 2525000
Simulation cycle for kernel 0 is = 2530000
Simulation cycle for kernel 0 is = 2535000
Simulation cycle for kernel 0 is = 2540000
Simulation cycle for kernel 0 is = 2545000
Simulation cycle for kernel 0 is = 2550000
Simulation cycle for kernel 0 is = 2555000
Simulation cycle for kernel 0 is = 2560000
Simulation cycle for kernel 0 is = 2565000
Simulation cycle for kernel 0 is = 2570000
Simulation cycle for kernel 0 is = 2575000
Simulation cycle for kernel 0 is = 2580000
Simulation cycle for kernel 0 is = 2585000
Simulation cycle for kernel 0 is = 2590000
Simulation cycle for kernel 0 is = 2595000
Simulation cycle for kernel 0 is = 2600000
Simulation cycle for kernel 0 is = 2605000
Simulation cycle for kernel 0 is = 2610000
Simulation cycle for kernel 0 is = 2615000
Simulation cycle for kernel 0 is = 2620000
Simulation cycle for kernel 0 is = 2625000
Simulation cycle for kernel 0 is = 2630000
Simulation cycle for kernel 0 is = 2635000
Simulation cycle for kernel 0 is = 2640000
Simulation cycle for kernel 0 is = 2645000
Simulation cycle for kernel 0 is = 2650000
Simulation cycle for kernel 0 is = 2655000
Simulation cycle for kernel 0 is = 2660000
Simulation cycle for kernel 0 is = 2665000
Simulation cycle for kernel 0 is = 2670000
Simulation cycle for kernel 0 is = 2675000
Simulation cycle for kernel 0 is = 2680000
Simulation cycle for kernel 0 is = 2685000
Simulation cycle for kernel 0 is = 2690000
Simulation cycle for kernel 0 is = 2695000
Simulation cycle for kernel 0 is = 2700000
Simulation cycle for kernel 0 is = 2705000
Simulation cycle for kernel 0 is = 2710000
Simulation cycle for kernel 0 is = 2715000
Simulation cycle for kernel 0 is = 2720000
Simulation cycle for kernel 0 is = 2725000
Simulation cycle for kernel 0 is = 2730000
Simulation cycle for kernel 0 is = 2735000
Simulation cycle for kernel 0 is = 2740000
Simulation cycle for kernel 0 is = 2745000
Simulation cycle for kernel 0 is = 2750000
Simulation cycle for kernel 0 is = 2755000
Simulation cycle for kernel 0 is = 2760000
Simulation cycle for kernel 0 is = 2765000
Simulation cycle for kernel 0 is = 2770000
Simulation cycle for kernel 0 is = 2775000
Simulation cycle for kernel 0 is = 2780000
Simulation cycle for kernel 0 is = 2785000
Simulation cycle for kernel 0 is = 2790000
Simulation cycle for kernel 0 is = 2795000
Simulation cycle for kernel 0 is = 2800000
Simulation cycle for kernel 0 is = 2805000
Simulation cycle for kernel 0 is = 2810000
Simulation cycle for kernel 0 is = 2815000
Simulation cycle for kernel 0 is = 2820000
Simulation cycle for kernel 0 is = 2825000
Simulation cycle for kernel 0 is = 2830000
Simulation cycle for kernel 0 is = 2835000
Simulation cycle for kernel 0 is = 2840000
Simulation cycle for kernel 0 is = 2845000
Simulation cycle for kernel 0 is = 2850000
Simulation cycle for kernel 0 is = 2855000
Simulation cycle for kernel 0 is = 2860000
Simulation cycle for kernel 0 is = 2865000
Simulation cycle for kernel 0 is = 2870000
Simulation cycle for kernel 0 is = 2875000
Simulation cycle for kernel 0 is = 2880000
Simulation cycle for kernel 0 is = 2885000
Simulation cycle for kernel 0 is = 2890000
Simulation cycle for kernel 0 is = 2895000
Simulation cycle for kernel 0 is = 2900000
Simulation cycle for kernel 0 is = 2905000
Simulation cycle for kernel 0 is = 2910000
Simulation cycle for kernel 0 is = 2915000
Simulation cycle for kernel 0 is = 2920000
Simulation cycle for kernel 0 is = 2925000
Simulation cycle for kernel 0 is = 2930000
Simulation cycle for kernel 0 is = 2935000
Simulation cycle for kernel 0 is = 2940000
Simulation cycle for kernel 0 is = 2945000
Simulation cycle for kernel 0 is = 2950000
Simulation cycle for kernel 0 is = 2955000
Simulation cycle for kernel 0 is = 2960000
Simulation cycle for kernel 0 is = 2965000
Simulation cycle for kernel 0 is = 2970000
Simulation cycle for kernel 0 is = 2975000
Simulation cycle for kernel 0 is = 2980000
Simulation cycle for kernel 0 is = 2985000
Simulation cycle for kernel 0 is = 2990000
Simulation cycle for kernel 0 is = 2995000
Simulation cycle for kernel 0 is = 3000000
Simulation cycle for kernel 0 is = 3005000
Simulation cycle for kernel 0 is = 3010000
Simulation cycle for kernel 0 is = 3015000
Simulation cycle for kernel 0 is = 3020000
Simulation cycle for kernel 0 is = 3025000
Simulation cycle for kernel 0 is = 3030000
Simulation cycle for kernel 0 is = 3035000
Simulation cycle for kernel 0 is = 3040000
Simulation cycle for kernel 0 is = 3045000
Simulation cycle for kernel 0 is = 3050000
Simulation cycle for kernel 0 is = 3055000
Simulation cycle for kernel 0 is = 3060000
Simulation cycle for kernel 0 is = 3065000
Simulation cycle for kernel 0 is = 3070000
Simulation cycle for kernel 0 is = 3075000
Simulation cycle for kernel 0 is = 3080000
Simulation cycle for kernel 0 is = 3085000
Simulation cycle for kernel 0 is = 3090000
Simulation cycle for kernel 0 is = 3095000
Simulation cycle for kernel 0 is = 3100000
Simulation cycle for kernel 0 is = 3105000
Simulation cycle for kernel 0 is = 3110000
Simulation cycle for kernel 0 is = 3115000
Simulation cycle for kernel 0 is = 3120000
Simulation cycle for kernel 0 is = 3125000
Simulation cycle for kernel 0 is = 3130000
Simulation cycle for kernel 0 is = 3135000
Simulation cycle for kernel 0 is = 3140000
Simulation cycle for kernel 0 is = 3145000
Simulation cycle for kernel 0 is = 3150000
Simulation cycle for kernel 0 is = 3155000
Simulation cycle for kernel 0 is = 3160000
Simulation cycle for kernel 0 is = 3165000
Simulation cycle for kernel 0 is = 3170000
Simulation cycle for kernel 0 is = 3175000
Simulation cycle for kernel 0 is = 3180000
Simulation cycle for kernel 0 is = 3185000
Simulation cycle for kernel 0 is = 3190000
Simulation cycle for kernel 0 is = 3195000
Simulation cycle for kernel 0 is = 3200000
Simulation cycle for kernel 0 is = 3205000
Simulation cycle for kernel 0 is = 3210000
Simulation cycle for kernel 0 is = 3215000
Simulation cycle for kernel 0 is = 3220000
Simulation cycle for kernel 0 is = 3225000
Simulation cycle for kernel 0 is = 3230000
Simulation cycle for kernel 0 is = 3235000
Simulation cycle for kernel 0 is = 3240000
Simulation cycle for kernel 0 is = 3245000
Simulation cycle for kernel 0 is = 3250000
[...]
RTWc_limit = 0 
CCDLc_limit = 2517 
rwq = 0 
CCDLc_limit_alone = 2517 
WTRc_limit_alone = 0 
RTWc_limit_alone = 0 

Commands details: 
total_CMD = 82265603 
n_nop = 82262060 
Read = 2697 
Write = 0 
L2_Alloc = 0 
L2_WB = 0 
n_act = 431 
n_pre = 415 
n_ref = 7376736139445821814 
n_req = 2697 
total_req = 2697 

Dual Bus Interface Util: 
issued_total_row = 846 
issued_total_col = 2697 
Row_Bus_Util =  0.000010 
CoL_Bus_Util = 0.000033 
Either_Row_CoL_Bus_Util = 0.000043 
Issued_on_Two_Bus_Simul_Util = 0.000000 
issued_two_Eff = 0.000000 
queue_avg = 0.000561 


dram_util_bins: 0 0 0 0 0 0 0 0 0 0
dram_eff_bins: 0 0 0 0 0 0 0 0 0 0
mrqq: max=14 avg=0.000561243
Memory Partition 9: 
Cache L2_bank_018:
MSHR contents

Cache L2_bank_019:
MSHR contents

In Dram Latency Queue (total = 0): 
DRAM[9]: 16 bks, busW=2 BL=16 CL=24, tRRD=12 tCCD=4, tRCD=24 tRAS=55 tRP=24 tRC=78
n_cmd=82265603 n_nop=82262032 n_act=447 n_pre=431 n_ref_event=7376736139445821814 n_req=2694 n_rd=2694 n_rd_L2_A=0 n_write=0 n_wr_bk=0 bw_util=0.000131
n_activity=45350 dram_eff=0.2376
bk0: 128a 82264203i bk1: 128a 82264338i bk2: 130a 82263930i bk3: 132a 82264174i bk4: 160a 82263872i bk5: 160a 82263947i bk6: 192a 82263316i bk7: 192a 82263501i bk8: 192a 82263724i bk9: 192a 82263456i bk10: 192a 82263801i bk11: 192a 82263270i bk12: 192a 82263556i bk13: 192a 82263780i bk14: 158a 82263463i bk15: 162a 82263822i 

------------------------------------------------------------------------

Row_Buffer_Locality = 0.838159
Row_Buffer_Locality_read = 0.838159
Row_Buffer_Locality_write = -nan
Bank_Level_Parallism = 1.262367
Bank_Level_Parallism_Col = 3.052398
Bank_Level_Parallism_Ready = 1.024038
write_to_read_ratio_blp_rw_average = 0.000000
GrpLevelPara = 0.000000 

BW Util details:
bwutil = 0.000131 
total_CMD = 82265603 
util_bw = 10776 
Wasted_Col = 10650 
Wasted_Row = 6962 
Idle = 82237215 

BW Util Bottlenecks: 
RCDc_limit = 9305 
RCDWRc_limit = 0 
WTRc_limit = 0 
RTWc_limit = 0 
CCDLc_limit = 2481 
rwq = 0 
CCDLc_limit_alone = 2481 
WTRc_limit_alone = 0 
RTWc_limit_alone = 0 

Commands details: 
total_CMD = 82265603 
n_nop = 82262032 
Read = 2694 
Write = 0 
L2_Alloc = 0 
L2_WB = 0 
n_act = 447 
n_pre = 431 
n_ref = 7376736139445821814 
n_req = 2694 
total_req = 2694 

Dual Bus Interface Util: 
issued_total_row = 878 
issued_total_col = 2694 
Row_Bus_Util =  0.000011 
CoL_Bus_Util = 0.000033 
Either_Row_CoL_Bus_Util = 0.000043 
Issued_on_Two_Bus_Simul_Util = 0.000000 
issued_two_Eff = 0.000280 
queue_avg = 0.000574 


dram_util_bins: 0 0 0 0 0 0 0 0 0 0
dram_eff_bins: 0 0 0 0 0 0 0 0 0 0
mrqq: max=14 avg=0.000573618
Memory Partition 10: 
Cache L2_bank_020:
MSHR contents

Cache L2_bank_021:
MSHR contents

In Dram Latency Queue (total = 0): 
DRAM[10]: 16 bks, busW=2 BL=16 CL=24, tRRD=12 tCCD=4, tRCD=24 tRAS=55 tRP=24 tRC=78
n_cmd=82265603 n_nop=82262080 n_act=428 n_pre=412 n_ref_event=7376736139445821814 n_req=2684 n_rd=2684 n_rd_L2_A=0 n_write=0 n_wr_bk=0 bw_util=0.0001305
n_activity=44351 dram_eff=0.2421
bk0: 128a 82264124i bk1: 128a 82264193i bk2: 128a 82264271i bk3: 128a 82264164i bk4: 160a 82263845i bk5: 160a 82263897i bk6: 192a 82263806i bk7: 192a 82263540i bk8: 192a 82263817i bk9: 192a 82263589i bk10: 192a 82263830i bk11: 192a 82263467i bk12: 192a 82263937i bk13: 192a 82263368i bk14: 157a 82263708i bk15: 159a 82263890i 

------------------------------------------------------------------------

Row_Buffer_Locality = 0.843890
Row_Buffer_Locality_read = 0.843890
Row_Buffer_Locality_write = -nan
Bank_Level_Parallism = 1.290524
Bank_Level_Parallism_Col = 3.052398
Bank_Level_Parallism_Ready = 1.025241
write_to_read_ratio_blp_rw_average = 0.000000
GrpLevelPara = 0.000000 

BW Util details:
bwutil = 0.000131 
total_CMD = 82265603 
util_bw = 10736 
Wasted_Col = 9898 
Wasted_Row = 6321 
Idle = 82238648 

BW Util Bottlenecks: 
RCDc_limit = 8716 
RCDWRc_limit = 0 
WTRc_limit = 0 
RTWc_limit = 0 
CCDLc_limit = 2398 
rwq = 0 
CCDLc_limit_alone = 2398 
WTRc_limit_alone = 0 
RTWc_limit_alone = 0 

Commands details: 
total_CMD = 82265603 
n_nop = 82262080 
Read = 2684 
Write = 0 
L2_Alloc = 0 
L2_WB = 0 
n_act = 428 
n_pre = 412 
n_ref = 7376736139445821814 
n_req = 2684 
total_req = 2684 

Dual Bus Interface Util: 
issued_total_row = 840 
issued_total_col = 2684 
Row_Bus_Util =  0.000010 
CoL_Bus_Util = 0.000033 
Either_Row_CoL_Bus_Util = 0.000043 
Issued_on_Two_Bus_Simul_Util = 0.000000 
issued_two_Eff = 0.000284 
queue_avg = 0.000570 


dram_util_bins: 0 0 0 0 0 0 0 0 0 0
dram_eff_bins: 0 0 0 0 0 0 0 0 0 0
mrqq: max=17 avg=0.000569959
Memory Partition 11: 
Cache L2_bank_022:
MSHR contents

Cache L2_bank_023:
MSHR contents

In Dram Latency Queue (total = 0): 
DRAM[11]: 16 bks, busW=2 BL=16 CL=24, tRRD=12 tCCD=4, tRCD=24 tRAS=55 tRP=24 tRC=78
n_cmd=82265603 n_nop=82262054 n_act=438 n_pre=422 n_ref_event=7376736139445821814 n_req=2692 n_rd=2692 n_rd_L2_A=0 n_write=0 n_wr_bk=0 bw_util=0.0001309
n_activity=44755 dram_eff=0.2406
bk0: 128a 82264302i bk1: 128a 82264112i bk2: 128a 82264060i bk3: 131a 82264086i bk4: 160a 82263892i bk5: 160a 82263987i bk6: 192a 82263550i bk7: 192a 82263657i bk8: 192a 82263667i bk9: 192a 82263771i bk10: 192a 82263562i bk11: 192a 82263719i bk12: 192a 82263814i bk13: 192a 82263661i bk14: 163a 82263617i bk15: 158a 82263650i 

------------------------------------------------------------------------

Row_Buffer_Locality = 0.841010
Row_Buffer_Locality_read = 0.841010
Row_Buffer_Locality_write = -nan
Bank_Level_Parallism = 1.247178
Bank_Level_Parallism_Col = 3.052398
Bank_Level_Parallism_Ready = 1.014455
write_to_read_ratio_blp_rw_average = 0.000000
GrpLevelPara = 0.000000 

BW Util details:
bwutil = 0.000131 
total_CMD = 82265603 
util_bw = 10768 
Wasted_Col = 10484 
Wasted_Row = 6756 
Idle = 82237595 

BW Util Bottlenecks: 
RCDc_limit = 9077 
RCDWRc_limit = 0 
WTRc_limit = 0 
RTWc_limit = 0 
CCDLc_limit = 2512 
rwq = 0 
CCDLc_limit_alone = 2512 
WTRc_limit_alone = 0 
RTWc_limit_alone = 0 

Commands details: 
total_CMD = 82265603 
n_nop = 82262054 
Read = 2692 
Write = 0 
L2_Alloc = 0 
L2_WB = 0 
n_act = 438 
n_pre = 422 
n_ref = 7376736139445821814 
n_req = 2692 
total_req = 2692 

Dual Bus Interface Util: 
issued_total_row = 860 
issued_total_col = 2692 
Row_Bus_Util =  0.000010 
CoL_Bus_Util = 0.000033 
Either_Row_CoL_Bus_Util = 0.000043 
Issued_on_Two_Bus_Simul_Util = 0.000000 
issued_two_Eff = 0.000845 
queue_avg = 0.000563 


dram_util_bins: 0 0 0 0 0 0 0 0 0 0
dram_eff_bins: 0 0 0 0 0 0 0 0 0 0
mrqq: max=14 avg=0.000563237

========= L2 cache stats =========
L2_cache_bank[0]: Access = 854058, Miss = 1347, Miss_rate = 0.002, Pending_hits = 319, Reservation_fails = 0
L2_cache_bank[1]: Access = 829580, Miss = 1345, Miss_rate = 0.002, Pending_hits = 364, Reservation_fails = 0
L2_cache_bank[2]: Access = 830104, Miss = 1340, Miss_rate = 0.002, Pending_hits = 501, Reservation_fails = 3472
L2_cache_bank[3]: Access = 807952, Miss = 1347, Miss_rate = 0.002, Pending_hits = 363, Reservation_fails = 0
L2_cache_bank[4]: Access = 873652, Miss = 1342, Miss_rate = 0.002, Pending_hits = 649, Reservation_fails = 11870
L2_cache_bank[5]: Access = 808294, Miss = 1345, Miss_rate = 0.002, Pending_hits = 350, Reservation_fails = 0
L2_cache_bank[6]: Access = 852047, Miss = 1348, Miss_rate = 0.002, Pending_hits = 334, Reservation_fails = 0
L2_cache_bank[7]: Access = 830054, Miss = 1345, Miss_rate = 0.002, Pending_hits = 393, Reservation_fails = 58
L2_cache_bank[8]: Access = 869353, Miss = 1351, Miss_rate = 0.002, Pending_hits = 319, Reservation_fails = 113
L2_cache_bank[9]: Access = 836199, Miss = 1351, Miss_rate = 0.002, Pending_hits = 338, Reservation_fails = 0
L2_cache_bank[10]: Access = 837029, Miss = 1343, Miss_rate = 0.002, Pending_hits = 507, Reservation_fails = 3481
L2_cache_bank[11]: Access = 808862, Miss = 1347, Miss_rate = 0.002, Pending_hits = 365, Reservation_fails = 0
L2_cache_bank[12]: Access = 873766, Miss = 1343, Miss_rate = 0.002, Pending_hits = 650, Reservation_fails = 11791
L2_cache_bank[13]: Access = 808166, Miss = 1347, Miss_rate = 0.002, Pending_hits = 354, Reservation_fails = 0
L2_cache_bank[14]: Access = 851088, Miss = 1348, Miss_rate = 0.002, Pending_hits = 315, Reservation_fails = 0
L2_cache_bank[15]: Access = 830182, Miss = 1344, Miss_rate = 0.002, Pending_hits = 403, Reservation_fails = 58
L2_cache_bank[16]: Access = 853877, Miss = 1348, Miss_rate = 0.002, Pending_hits = 311, Reservation_fails = 0
L2_cache_bank[17]: Access = 829451, Miss = 1349, Miss_rate = 0.002, Pending_hits = 349, Reservation_fails = 0
L2_cache_bank[18]: Access = 829975, Miss = 1344, Miss_rate = 0.002, Pending_hits = 504, Reservation_fails = 3657
L2_cache_bank[19]: Access = 808074, Miss = 1350, Miss_rate = 0.002, Pending_hits = 367, Reservation_fails = 0
L2_cache_bank[20]: Access = 873771, Miss = 1341, Miss_rate = 0.002, Pending_hits = 640, Reservation_fails = 11963
L2_cache_bank[21]: Access = 808294, Miss = 1343, Miss_rate = 0.002, Pending_hits = 351, Reservation_fails = 0
L2_cache_bank[22]: Access = 851081, Miss = 1347, Miss_rate = 0.002, Pending_hits = 322, Reservation_fails = 0
L2_cache_bank[23]: Access = 830054, Miss = 1345, Miss_rate = 0.002, Pending_hits = 400, Reservation_fails = 58
L2_total_cache_accesses = 20084963
L2_total_cache_misses = 32300
L2_total_cache_miss_rate = 0.0016
L2_total_cache_pending_hits = 9768
L2_total_cache_reservation_fails = 46521
L2_total_cache_breakdown:
	L2_cache_stats_breakdown[GLOBAL_ACC_R][HIT] = 19977359
	L2_cache_stats_breakdown[GLOBAL_ACC_R][HIT_RESERVED] = 9768
	L2_cache_stats_breakdown[GLOBAL_ACC_R][MISS] = 8136
	L2_cache_stats_breakdown[GLOBAL_ACC_R][RESERVATION_FAIL] = 46521
	L2_cache_stats_breakdown[GLOBAL_ACC_R][SECTOR_MISS] = 24164
	L2_cache_stats_breakdown[GLOBAL_ACC_R][MSHR_HIT] = 9768
	L2_cache_stats_breakdown[LOCAL_ACC_R][HIT] = 0
	L2_cache_stats_breakdown[LOCAL_ACC_R][HIT_RESERVED] = 0
	L2_cache_stats_breakdown[LOCAL_ACC_R][MISS] = 0
	L2_cache_stats_breakdown[LOCAL_ACC_R][RESERVATION_FAIL] = 0
	L2_cache_stats_breakdown[LOCAL_ACC_R][SECTOR_MISS] = 0
	L2_cache_stats_breakdown[LOCAL_ACC_R][MSHR_HIT] = 0
	L2_cache_stats_breakdown[CONST_ACC_R][HIT] = 0
	L2_cache_stats_breakdown[CONST_ACC_R][HIT_RESERVED] = 0
	L2_cache_stats_breakdown[CONST_ACC_R][MISS] = 0
	L2_cache_stats_breakdown[CONST_ACC_R][RESERVATION_FAIL] = 0
	L2_cache_stats_breakdown[CONST_ACC_R][SECTOR_MISS] = 0
	L2_cache_stats_breakdown[CONST_ACC_R][MSHR_HIT] = 0
	L2_cache_stats_breakdown[TEXTURE_ACC_R][HIT] = 0
	L2_cache_stats_breakdown[TEXTURE_ACC_R][HIT_RESERVED] = 0
	L2_cache_stats_breakdown[TEXTURE_ACC_R][MISS] = 0
	L2_cache_stats_breakdown[TEXTURE_ACC_R][RESERVATION_FAIL] = 0
	L2_cache_stats_breakdown[TEXTURE_ACC_R][SECTOR_MISS] = 0
	L2_cache_stats_breakdown[TEXTURE_ACC_R][MSHR_HIT] = 0
	L2_cache_stats_breakdown[GLOBAL_ACC_W][HIT] = 65536
	L2_cache_stats_breakdown[GLOBAL_ACC_W][HIT_RESERVED] = 0
	L2_cache_stats_breakdown[GLOBAL_ACC_W][MISS] = 0
	L2_cache_stats_breakdown[GLOBAL_ACC_W][RESERVATION_FAIL] = 0
	L2_cache_stats_breakdown[GLOBAL_ACC_W][SECTOR_MISS] = 0
	L2_cache_stats_breakdown[GLOBAL_ACC_W][MSHR_HIT] = 0
	L2_cache_stats_breakdown[LOCAL_ACC_W][HIT] = 0
	L2_cache_stats_breakdown[LOCAL_ACC_W][HIT_RESERVED] = 0
	L2_cache_stats_breakdown[LOCAL_ACC_W][MISS] = 0
	L2_cache_stats_breakdown[LOCAL_ACC_W][RESERVATION_FAIL] = 0
	L2_cache_stats_breakdown[LOCAL_ACC_W][SECTOR_MISS] = 0
	L2_cache_stats_breakdown[LOCAL_ACC_W][MSHR_HIT] = 0
	L2_cache_stats_breakdown[L1_WRBK_ACC][HIT] = 0
	L2_cache_stats_breakdown[L1_WRBK_ACC][HIT_RESERVED] = 0
	L2_cache_stats_breakdown[L1_WRBK_ACC][MISS] = 0
	L2_cache_stats_breakdown[L1_WRBK_ACC][RESERVATION_FAIL] = 0
	L2_cache_stats_breakdown[L1_WRBK_ACC][SECTOR_MISS] = 0
	L2_cache_stats_breakdown[L1_WRBK_ACC][MSHR_HIT] = 0
	L2_cache_stats_breakdown[L2_WRBK_ACC][HIT] = 0
	L2_cache_stats_breakdown[L2_WRBK_ACC][HIT_RESERVED] = 0
	L2_cache_stats_breakdown[L2_WRBK_ACC][MISS] = 0
	L2_cache_stats_breakdown[L2_WRBK_ACC][RESERVATION_FAIL] = 0
	L2_cache_stats_breakdown[L2_WRBK_ACC][SECTOR_MISS] = 0
	L2_cache_stats_breakdown[L2_WRBK_ACC][MSHR_HIT] = 0
	L2_cache_stats_breakdown[INST_ACC_R][HIT] = 0
	L2_cache_stats_breakdown[INST_ACC_R][HIT_RESERVED] = 0
	L2_cache_stats_breakdown[INST_ACC_R][MISS] = 0
	L2_cache_stats_breakdown[INST_ACC_R][RESERVATION_FAIL] = 0
	L2_cache_stats_breakdown[INST_ACC_R][SECTOR_MISS] = 0
	L2_cache_stats_breakdown[INST_ACC_R][MSHR_HIT] = 0
	L2_cache_stats_breakdown[L1_WR_ALLOC_R][HIT] = 0
	L2_cache_stats_breakdown[L1_WR_ALLOC_R][HIT_RESERVED] = 0
	L2_cache_stats_breakdown[L1_WR_ALLOC_R][MISS] = 0
	L2_cache_stats_breakdown[L1_WR_ALLOC_R][RESERVATION_FAIL] = 0
	L2_cache_stats_breakdown[L1_WR_ALLOC_R][SECTOR_MISS] = 0
	L2_cache_stats_breakdown[L1_WR_ALLOC_R][MSHR_HIT] = 0
	L2_cache_stats_breakdown[L2_WR_ALLOC_R][HIT] = 0
	L2_cache_stats_breakdown[L2_WR_ALLOC_R][HIT_RESERVED] = 0
	L2_cache_stats_breakdown[L2_WR_ALLOC_R][MISS] = 0
	L2_cache_stats_breakdown[L2_WR_ALLOC_R][RESERVATION_FAIL] = 0
	L2_cache_stats_breakdown[L2_WR_ALLOC_R][SECTOR_MISS] = 0
	L2_cache_stats_breakdown[L2_WR_ALLOC_R][MSHR_HIT] = 0
	L2_cache_stats_breakdown[GLOBAL_ACC_R][TOTAL_ACCESS] = 20019427
	L2_cache_stats_breakdown[GLOBAL_ACC_W][TOTAL_ACCESS] = 65536
L2_total_cache_reservation_fail_breakdown:
	L2_cache_stats_fail_breakdown[GLOBAL_ACC_R][MSHR_MERGE_ENRTY_FAIL] = 46521
L2_cache_data_port_util = 0.026
L2_cache_fill_port_util = 0.000

icnt_total_pkts_mem_to_simt=20084963
icnt_total_pkts_simt_to_mem=20084963
LD_mem_lat_dist  0 0 0 0 0 0 0 0 0 0 0 0 0 0 0 0 0 0 0 0 0 0 0 0 0 0 0
ST_mem_lat_dist  0 0 0 0 0 0 0 0 0 0 0 0 0 0 0 0 0 0 0 0 0 0 0 0 0 0 0
----------------------------Interconnect-DETAILS--------------------------------
Req_Network_injected_packets_num = 20084963
Req_Network_cycles = 32079004
Req_Network_injected_packets_per_cycle =       0.6261 
Req_Network_conflicts_per_cycle =       0.2995
Req_Network_conflicts_per_cycle_util =       1.0596
Req_Bank_Level_Parallism =       2.2149
Req_Network_in_buffer_full_per_cycle =       0.0000
Req_Network_in_buffer_avg_util =       1.3214
Req_Network_out_buffer_full_per_cycle =       0.0007
Req_Network_out_buffer_avg_util =       0.0696

Reply_Network_injected_packets_num = 20084963
Reply_Network_cycles = 32079004
Reply_Network_injected_packets_per_cycle =        0.6261
Reply_Network_conflicts_per_cycle =        0.2502
Reply_Network_conflicts_per_cycle_util =       0.8859
Reply_Bank_Level_Parallism =       2.2169
Reply_Network_in_buffer_full_per_cycle =       0.0000
Reply_Network_in_buffer_avg_util =       1.3080
Reply_Network_out_buffer_full_per_cycle =       0.0000
Reply_Network_out_buffer_avg_util =       0.0209
----------------------------END-of-Interconnect-DETAILS-------------------------


gpgpu_simulation_time = 1 days, 13 hrs, 16 min, 7 sec (134167 sec)
gpgpu_simulation_rate = 684 (inst/sec)
gpgpu_simulation_rate = 239 (cycle/sec)
gpgpu_silicon_slowdown = 5711297x
GPGPU-Sim: synchronize waiting for inactive GPU simulation
GPGPU-Sim API: Stream Manager State
GPGPU-Sim: detected inactive GPU simulation thread
2 - CPU_states[0] * dense_kernel[0] = -0.000001
2 - CPU_states[1] * dense_kernel[1] = -0.000000
2 - CPU_states[2] * dense_kernel[2] = 0.000000
2 - CPU_states[3] * dense_kernel[3] = 0.000000
2 - CPU_states[4] * dense_kernel[4] = 0.000000
2 - CPU_states[5] * dense_kernel[5] = -0.000000
2 - CPU_states[6] * dense_kernel[6] = -0.000000
2 - CPU_states[7] * dense_kernel[7] = -0.000000
2 - CPU_states[8] * dense_kernel[8] = 0.000000
2 - CPU_states[9] * dense_kernel[9] = -0.000000
2 - CPU_states[10] * dense_kernel[10] = -0.000000
2 - CPU_states[11] * dense_kernel[11] = 0.000000
2 - CPU_states[12] * dense_kernel[12] = 0.000000
2 - CPU_states[13] * dense_kernel[13] = 0.000000
2 - CPU_states[14] * dense_kernel[14] = 0.000000
2 - CPU_states[15] * dense_kernel[15] = 0.000000
2 - CPU_states[16] * dense_kernel[16] = -0.000000
2 - CPU_states[17] * dense_kernel[17] = -0.000000
2 - CPU_states[18] * dense_kernel[18] = 0.000000
2 - CPU_states[19] * dense_kernel[19] = -0.000000
2 - CPU_states[20] * dense_kernel[20] = 0.000000
2 - CPU_states[21] * dense_kernel[21] = -0.000000
2 - CPU_states[22] * dense_kernel[22] = -0.000000
2 - CPU_states[23] * dense_kernel[23] = 0.000000
2 - CPU_states[24] * dense_kernel[24] = 0.000000
2 - CPU_states[25] * dense_kernel[25] = 0.000000
2 - CPU_states[26] * dense_kernel[26] = 0.000000
2 - CPU_states[27] * dense_kernel[27] = -0.000000
2 - CPU_states[28] * dense_kernel[28] = -0.000000
2 - CPU_states[29] * dense_kernel[29] = -0.000000
2 - CPU_states[30] * dense_kernel[30] = -0.000000
2 - CPU_states[31] * dense_kernel[31] = 0.000000
2 - CPU_states[32] * dense_kernel[32] = -0.000000
2 - CPU_states[33] * dense_kernel[33] = -0.000000
2 - CPU_states[34] * dense_kernel[34] = 0.000000
2 - CPU_states[35] * dense_kernel[35] = 0.000000
2 - CPU_states[36] * dense_kernel[36] = 0.000000
2 - CPU_states[37] * dense_kernel[37] = -0.000000
2 - CPU_states[38] * dense_kernel[38] = -0.000000
2 - CPU_states[39] * dense_kernel[39] = 0.000000
2 - CPU_states[40] * dense_kernel[40] = 0.000000
2 - CPU_states[41] * dense_kernel[41] = 0.000000
2 - CPU_states[42] * dense_kernel[42] = 0.000000
2 - CPU_states[43] * dense_kernel[43] = -0.000000
2 - CPU_states[44] * dense_kernel[44] = -0.000000
2 - CPU_states[45] * dense_kernel[45] = -0.000000
2 - CPU_states[46] * dense_kernel[46] = 0.000000
2 - CPU_states[47] * dense_kernel[47] = -0.000000
2 - CPU_states[48] * dense_kernel[48] = -0.000000
2 - CPU_states[49] * dense_kernel[49] = -0.000000
2 - CPU_states[50] * dense_kernel[50] = 0.000000
2 - CPU_states[51] * dense_kernel[51] = 0.000000
2 - CPU_states[52] * dense_kernel[52] = 0.000000
2 - CPU_states[53] * dense_kernel[53] = -0.000000
2 - CPU_states[54] * dense_kernel[54] = 0.000000
2 - CPU_states[55] * dense_kernel[55] = -0.000000
2 - CPU_states[56] * dense_kernel[56] = 0.000000
2 - CPU_states[57] * dense_kernel[57] = -0.000000
2 - CPU_states[58] * dense_kernel[58] = -0.000000
2 - CPU_states[59] * dense_kernel[59] = -0.000000
2 - CPU_states[60] * dense_kernel[60] = 0.000000
2 - CPU_states[61] * dense_kernel[61] = -0.000000
2 - CPU_states[62] * dense_kernel[62] = -0.000000
2 - CPU_states[63] * dense_kernel[63] = 0.000000
2 - CPU_states[64] * dense_kernel[64] = -0.000000
2 - CPU_states[65] * dense_kernel[65] = -0.000000
2 - CPU_states[66] * dense_kernel[66] = -0.000000
2 - CPU_states[67] * dense_kernel[67] = -0.000000
2 - CPU_states[68] * dense_kernel[68] = -0.000000
2 - CPU_states[69] * dense_kernel[69] = 0.000000
2 - CPU_states[70] * dense_kernel[70] = -0.000000
2 - CPU_states[71] * dense_kernel[71] = 0.000000
2 - CPU_states[72] * dense_kernel[72] = 0.000000
2 - CPU_states[73] * dense_kernel[73] = 0.000000
2 - CPU_states[74] * dense_kernel[74] = -0.000000
2 - CPU_states[75] * dense_kernel[75] = 0.000000
2 - CPU_states[76] * dense_kernel[76] = -0.000000
2 - CPU_states[77] * dense_kernel[77] = 0.000000
2 - CPU_states[78] * dense_kernel[78] = -0.000000
2 - CPU_states[79] * dense_kernel[79] = 0.000000
2 - CPU_states[80] * dense_kernel[80] = -0.000000
2 - CPU_states[81] * dense_kernel[81] = 0.000000
2 - CPU_states[82] * dense_kernel[82] = 0.000000
2 - CPU_states[83] * dense_kernel[83] = -0.000000
2 - CPU_states[84] * dense_kernel[84] = -0.000000
2 - CPU_states[85] * dense_kernel[85] = 0.000000
2 - CPU_states[86] * dense_kernel[86] = 0.000000
2 - CPU_states[87] * dense_kernel[87] = -0.000000
2 - CPU_states[88] * dense_kernel[88] = -0.000000
2 - CPU_states[89] * dense_kernel[89] = 0.000000
2 - CPU_states[90] * dense_kernel[90] = 0.000000
2 - CPU_states[91] * dense_kernel[91] = -0.000000
2 - CPU_states[92] * dense_kernel[92] = 0.000000
2 - CPU_states[93] * dense_kernel[93] = 0.000000
2 - CPU_states[94] * dense_kernel[94] = -0.000000
2 - CPU_states[95] * dense_kernel[95] = -0.000000
2 - CPU_states[96] * dense_kernel[96] = 0.000000
2 - CPU_states[97] * dense_kernel[97] = -0.000000
2 - CPU_states[98] * dense_kernel[98] = -0.000000
2 - CPU_states[99] * dense_kernel[99] = -0.000000
PROCUDT (2) 0.021643
GPGPU-Sim: *** exit detected ***
