

        *** GPGPU-Sim Simulator Version 4.2.0  [build gpgpu-sim_git-commit-5e9d31b8132651796656877ecb58fde27177ba7a_modified_303.0] ***


GPGPU-Sim PTX: simulation mode 0 (can change with PTX_SIM_MODE_FUNC environment variable:
               1=functional simulation only, 0=detailed performance simulator)
GPGPU-Sim PTX: overriding embedded ptx with ptx file (PTX_SIM_USE_PTX_FILE is set)
GPGPU-Sim: Configuration options:

-save_embedded_ptx                      0 # saves ptx files embedded in binary as <n>.ptx
-keep                                   0 # keep intermediate files created by GPGPU-Sim when interfacing with external programs
-gpgpu_ptx_save_converted_ptxplus                    0 # Saved converted ptxplus to a file
-gpgpu_occupancy_sm_number                   75 # The SM number to pass to ptxas when getting register usage for computing GPU occupancy. This parameter is required in the config.
-ptx_opcode_latency_int           4,4,4,4,21 # Opcode latencies for integers <ADD,MAX,MUL,MAD,DIV,SHFL>Default 1,1,19,25,145,32
-ptx_opcode_latency_fp           4,4,4,4,39 # Opcode latencies for single precision floating points <ADD,MAX,MUL,MAD,DIV>Default 1,1,1,1,30
-ptx_opcode_latency_dp      64,64,64,64,330 # Opcode latencies for double precision floating points <ADD,MAX,MUL,MAD,DIV>Default 8,8,8,8,335
-ptx_opcode_latency_sfu                   21 # Opcode latencies for SFU instructionsDefault 8
-ptx_opcode_latency_tesnor                   64 # Opcode latencies for Tensor instructionsDefault 64
-ptx_opcode_initiation_int            2,2,2,2,2 # Opcode initiation intervals for integers <ADD,MAX,MUL,MAD,DIV,SHFL>Default 1,1,4,4,32,4
-ptx_opcode_initiation_fp            2,2,2,2,4 # Opcode initiation intervals for single precision floating points <ADD,MAX,MUL,MAD,DIV>Default 1,1,1,1,5
-ptx_opcode_initiation_dp      64,64,64,64,130 # Opcode initiation intervals for double precision floating points <ADD,MAX,MUL,MAD,DIV>Default 8,8,8,8,130
-ptx_opcode_initiation_sfu                    8 # Opcode initiation intervals for sfu instructionsDefault 8
-ptx_opcode_initiation_tensor                   64 # Opcode initiation intervals for tensor instructionsDefault 64
-cdp_latency         7200,8000,100,12000,1600 # CDP API latency <cudaStreamCreateWithFlags, cudaGetParameterBufferV2_init_perWarp, cudaGetParameterBufferV2_perKernel, cudaLaunchDeviceV2_init_perWarp, cudaLaunchDevicV2_perKernel>Default 7200,8000,100,12000,1600
-network_mode                           2 # Interconnection network mode
-inter_config_file                   mesh # Interconnection network config file
-icnt_in_buffer_limit                  512 # in_buffer_limit
-icnt_out_buffer_limit                  512 # out_buffer_limit
-icnt_subnets                           2 # subnets
-icnt_arbiter_algo                      1 # arbiter_algo
-icnt_verbose                           0 # inct_verbose
-icnt_grant_cycles                      1 # grant_cycles
-gpgpu_ptx_use_cuobjdump                    1 # Use cuobjdump to extract ptx and sass from binaries
-gpgpu_experimental_lib_support                    0 # Try to extract code from cuda libraries [Broken because of unknown cudaGetExportTable]
-checkpoint_option                      0 #  checkpointing flag (0 = no checkpoint)
-checkpoint_kernel                      1 #  checkpointing during execution of which kernel (1- 1st kernel)
-checkpoint_CTA                         0 #  checkpointing after # of CTA (< less than total CTA)
-resume_option                          0 #  resume flag (0 = no resume)
-resume_kernel                          0 #  Resume from which kernel (1= 1st kernel)
-resume_CTA                             0 #  resume from which CTA 
-checkpoint_CTA_t                       0 #  resume from which CTA 
-checkpoint_insn_Y                      0 #  resume from which CTA 
-gpgpu_ptx_convert_to_ptxplus                    0 # Convert SASS (native ISA) to ptxplus and run ptxplus
-gpgpu_ptx_force_max_capability                   75 # Force maximum compute capability
-gpgpu_ptx_inst_debug_to_file                    0 # Dump executed instructions' debug information to file
-gpgpu_ptx_inst_debug_file       inst_debug.txt # Executed instructions' debug output file
-gpgpu_ptx_inst_debug_thread_uid                    1 # Thread UID for executed instructions' debug output
-gpgpu_simd_model                       1 # 1 = post-dominator
-gpgpu_shader_core_pipeline              1024:32 # shader core pipeline config, i.e., {<nthread>:<warpsize>}
-gpgpu_tex_cache:l1  N:4:128:256,L:R:m:N:L,T:512:8,128:2 # per-shader L1 texture cache  (READ-ONLY) config  {<nsets>:<bsize>:<assoc>,<rep>:<wr>:<alloc>:<wr_alloc>,<mshr>:<N>:<merge>,<mq>:<rf>}
-gpgpu_const_cache:l1 N:128:64:8,L:R:f:N:L,S:2:64,4 # per-shader L1 constant memory cache  (READ-ONLY) config  {<nsets>:<bsize>:<assoc>,<rep>:<wr>:<alloc>:<wr_alloc>,<mshr>:<N>:<merge>,<mq>} 
-gpgpu_cache:il1     N:64:128:16,L:R:f:N:L,S:2:48,4 # shader L1 instruction cache config  {<nsets>:<bsize>:<assoc>,<rep>:<wr>:<alloc>:<wr_alloc>,<mshr>:<N>:<merge>,<mq>} 
-gpgpu_cache:dl1     S:4:128:64,L:T:m:L:L,A:256:32,16:0,32 # per-shader L1 data cache config  {<nsets>:<bsize>:<assoc>,<rep>:<wr>:<alloc>:<wr_alloc>,<mshr>:<N>:<merge>,<mq> | none}
-gpgpu_l1_cache_write_ratio                   25 # L1D write ratio
-gpgpu_l1_banks                         4 # The number of L1 cache banks
-gpgpu_l1_banks_byte_interleaving                   32 # l1 banks byte interleaving granularity
-gpgpu_l1_banks_hashing_function                    0 # l1 banks hashing function
-gpgpu_l1_latency                      32 # L1 Hit Latency
-gpgpu_smem_latency                    30 # smem Latency
-gpgpu_cache:dl1PrefL1                 none # per-shader L1 data cache config  {<nsets>:<bsize>:<assoc>,<rep>:<wr>:<alloc>:<wr_alloc>,<mshr>:<N>:<merge>,<mq> | none}
-gpgpu_cache:dl1PrefShared                 none # per-shader L1 data cache config  {<nsets>:<bsize>:<assoc>,<rep>:<wr>:<alloc>:<wr_alloc>,<mshr>:<N>:<merge>,<mq> | none}
-gpgpu_gmem_skip_L1D                    0 # global memory access skip L1D cache (implements -Xptxas -dlcm=cg, default=no skip)
-gpgpu_perfect_mem                      0 # enable perfect memory mode (no cache miss)
-n_regfile_gating_group                    4 # group of lanes that should be read/written together)
-gpgpu_clock_gated_reg_file                    0 # enable clock gated reg file for power calculations
-gpgpu_clock_gated_lanes                    0 # enable clock gated lanes for power calculations
-gpgpu_shader_registers                65536 # Number of registers per shader core. Limits number of concurrent CTAs. (default 8192)
-gpgpu_registers_per_block                65536 # Maximum number of registers per CTA. (default 8192)
-gpgpu_ignore_resources_limitation                    0 # gpgpu_ignore_resources_limitation (default 0)
-gpgpu_shader_cta                      16 # Maximum number of concurrent CTAs in shader (default 32)
-gpgpu_num_cta_barriers                   16 # Maximum number of named barriers per CTA (default 16)
-gpgpu_n_clusters                      30 # number of processing clusters
-gpgpu_n_cores_per_cluster                    1 # number of simd cores per cluster
-gpgpu_n_cluster_ejection_buffer_size                   32 # number of packets in ejection buffer
-gpgpu_n_ldst_response_buffer_size                    2 # number of response packets in ld/st unit ejection buffer
-gpgpu_shmem_per_block                49152 # Size of shared memory per thread block or CTA (default 48kB)
-gpgpu_shmem_size                   65536 # Size of shared memory per shader core (default 16kB)
-gpgpu_shmem_option                 32,64 # Option list of shared memory sizes
-gpgpu_unified_l1d_size                   96 # Size of unified data cache(L1D + shared memory) in KB
-gpgpu_adaptive_cache_config                    1 # adaptive_cache_config
-gpgpu_shmem_sizeDefault                65536 # Size of shared memory per shader core (default 16kB)
-gpgpu_shmem_size_PrefL1                16384 # Size of shared memory per shader core (default 16kB)
-gpgpu_shmem_size_PrefShared                16384 # Size of shared memory per shader core (default 16kB)
-gpgpu_shmem_num_banks                   32 # Number of banks in the shared memory in each shader core (default 16)
-gpgpu_shmem_limited_broadcast                    0 # Limit shared memory to do one broadcast per cycle (default on)
-gpgpu_shmem_warp_parts                    1 # Number of portions a warp is divided into for shared memory bank conflict check 
-gpgpu_mem_unit_ports                    1 # The number of memory transactions allowed per core cycle
-gpgpu_shmem_warp_parts                    1 # Number of portions a warp is divided into for shared memory bank conflict check 
-gpgpu_warpdistro_shader                   -1 # Specify which shader core to collect the warp size distribution from
-gpgpu_warp_issue_shader                    0 # Specify which shader core to collect the warp issue distribution from
-gpgpu_local_mem_map                    1 # Mapping from local memory space address to simulated GPU physical address space (default = enabled)
-gpgpu_num_reg_banks                    8 # Number of register banks (default = 8)
-gpgpu_reg_bank_use_warp_id                    0 # Use warp ID in mapping registers to banks (default = off)
-gpgpu_sub_core_model                    1 # Sub Core Volta/Pascal model (default = off)
-gpgpu_enable_specialized_operand_collector                    0 # enable_specialized_operand_collector
-gpgpu_operand_collector_num_units_sp                    4 # number of collector units (default = 4)
-gpgpu_operand_collector_num_units_dp                    0 # number of collector units (default = 0)
-gpgpu_operand_collector_num_units_sfu                    4 # number of collector units (default = 4)
-gpgpu_operand_collector_num_units_int                    0 # number of collector units (default = 0)
-gpgpu_operand_collector_num_units_tensor_core                    4 # number of collector units (default = 4)
-gpgpu_operand_collector_num_units_mem                    2 # number of collector units (default = 2)
-gpgpu_operand_collector_num_units_gen                    8 # number of collector units (default = 0)
-gpgpu_operand_collector_num_in_ports_sp                    1 # number of collector unit in ports (default = 1)
-gpgpu_operand_collector_num_in_ports_dp                    0 # number of collector unit in ports (default = 0)
-gpgpu_operand_collector_num_in_ports_sfu                    1 # number of collector unit in ports (default = 1)
-gpgpu_operand_collector_num_in_ports_int                    0 # number of collector unit in ports (default = 0)
-gpgpu_operand_collector_num_in_ports_tensor_core                    1 # number of collector unit in ports (default = 1)
-gpgpu_operand_collector_num_in_ports_mem                    1 # number of collector unit in ports (default = 1)
-gpgpu_operand_collector_num_in_ports_gen                    8 # number of collector unit in ports (default = 0)
-gpgpu_operand_collector_num_out_ports_sp                    1 # number of collector unit in ports (default = 1)
-gpgpu_operand_collector_num_out_ports_dp                    0 # number of collector unit in ports (default = 0)
-gpgpu_operand_collector_num_out_ports_sfu                    1 # number of collector unit in ports (default = 1)
-gpgpu_operand_collector_num_out_ports_int                    0 # number of collector unit in ports (default = 0)
-gpgpu_operand_collector_num_out_ports_tensor_core                    1 # number of collector unit in ports (default = 1)
-gpgpu_operand_collector_num_out_ports_mem                    1 # number of collector unit in ports (default = 1)
-gpgpu_operand_collector_num_out_ports_gen                    8 # number of collector unit in ports (default = 0)
-gpgpu_coalesce_arch                   75 # Coalescing arch (GT200 = 13, Fermi = 20)
-gpgpu_num_sched_per_core                    4 # Number of warp schedulers per core
-gpgpu_max_insn_issue_per_warp                    1 # Max number of instructions that can be issued per warp in one cycle by scheduler (either 1 or 2)
-gpgpu_dual_issue_diff_exec_units                    1 # should dual issue use two different execution unit resources (Default = 1)
-gpgpu_simt_core_sim_order                    1 # Select the simulation order of cores in a cluster (0=Fix, 1=Round-Robin)
-gpgpu_pipeline_widths 4,4,4,4,4,4,4,4,4,4,8,4,4 # Pipeline widths ID_OC_SP,ID_OC_DP,ID_OC_INT,ID_OC_SFU,ID_OC_MEM,OC_EX_SP,OC_EX_DP,OC_EX_INT,OC_EX_SFU,OC_EX_MEM,EX_WB,ID_OC_TENSOR_CORE,OC_EX_TENSOR_CORE
-gpgpu_tensor_core_avail                    1 # Tensor Core Available (default=0)
-gpgpu_num_sp_units                     4 # Number of SP units (default=1)
-gpgpu_num_dp_units                     4 # Number of DP units (default=0)
-gpgpu_num_int_units                    4 # Number of INT units (default=0)
-gpgpu_num_sfu_units                    4 # Number of SF units (default=1)
-gpgpu_num_tensor_core_units                    4 # Number of tensor_core units (default=1)
-gpgpu_num_mem_units                    1 # Number if ldst units (default=1) WARNING: not hooked up to anything
-kernelBased                            1 # Does the approximator work as kernel based (default = 0)
-kernelId                               1 # Kernel ids where the approximation applied 
-hybridApproximation                    0 # Hybrid approximator (default = 0)
-errorPercentage                      100 # Error percentage (number of max flushed accesses)
-l1dApproximator                        0 # Memory access delete unit (default = 0)
-l1dSlicingAccessInterval                 5000 # Slice access window length (default = 1000)
-l2Approximator                         1 # Memory access delete unit (default = 0)
-l2SlicingAccessInterval                 5000 # Slice access window length (default = 1000)
-smOccupancy                            0 # sm occupancy (default = 0)
-smSlicingInterval                   5000 # Slice access window length (default = 1000)
-gpgpu_scheduler                      lrr # Scheduler configuration: < lrr | gto | two_level_active > If two_level_active:<num_active_warps>:<inner_prioritization>:<outer_prioritization>For complete list of prioritization values see shader.h enum scheduler_prioritization_typeDefault: gto
-gpgpu_concurrent_kernel_sm                    0 # Support concurrent kernels on a SM (default = disabled)
-gpgpu_perfect_inst_const_cache                    1 # perfect inst and const cache mode, so all inst and const hits in the cache(default = disabled)
-gpgpu_inst_fetch_throughput                    4 # the number of fetched intruction per warp each cycle
-gpgpu_reg_file_port_throughput                    2 # the number ports of the register file
-specialized_unit_1         0,4,4,4,4,BRA # specialized unit config {<enabled>,<num_units>:<latency>:<initiation>,<ID_OC_SPEC>:<OC_EX_SPEC>,<NAME>}
-specialized_unit_2         0,4,4,4,4,BRA # specialized unit config {<enabled>,<num_units>:<latency>:<initiation>,<ID_OC_SPEC>:<OC_EX_SPEC>,<NAME>}
-specialized_unit_3         0,4,4,4,4,BRA # specialized unit config {<enabled>,<num_units>:<latency>:<initiation>,<ID_OC_SPEC>:<OC_EX_SPEC>,<NAME>}
-specialized_unit_4         0,4,4,4,4,BRA # specialized unit config {<enabled>,<num_units>:<latency>:<initiation>,<ID_OC_SPEC>:<OC_EX_SPEC>,<NAME>}
-specialized_unit_5         0,4,4,4,4,BRA # specialized unit config {<enabled>,<num_units>:<latency>:<initiation>,<ID_OC_SPEC>:<OC_EX_SPEC>,<NAME>}
-specialized_unit_6         0,4,4,4,4,BRA # specialized unit config {<enabled>,<num_units>:<latency>:<initiation>,<ID_OC_SPEC>:<OC_EX_SPEC>,<NAME>}
-specialized_unit_7         0,4,4,4,4,BRA # specialized unit config {<enabled>,<num_units>:<latency>:<initiation>,<ID_OC_SPEC>:<OC_EX_SPEC>,<NAME>}
-specialized_unit_8         0,4,4,4,4,BRA # specialized unit config {<enabled>,<num_units>:<latency>:<initiation>,<ID_OC_SPEC>:<OC_EX_SPEC>,<NAME>}
-gpgpu_perf_sim_memcpy                    1 # Fill the L2 cache on memcpy
-gpgpu_simple_dram_model                    0 # simple_dram_model with fixed latency and BW
-gpgpu_dram_scheduler                    1 # 0 = fifo, 1 = FR-FCFS (defaul)
-gpgpu_dram_partition_queues          64:64:64:64 # i2$:$2d:d2$:$2i
-l2_ideal                               0 # Use a ideal L2 cache that always hit
-gpgpu_cache:dl2     S:64:128:16,L:B:m:L:P,A:192:4,32:0,32 # unified banked L2 data cache config  {<nsets>:<bsize>:<assoc>,<rep>:<wr>:<alloc>:<wr_alloc>,<mshr>:<N>:<merge>,<mq>}
-gpgpu_cache:dl2_texture_only                    0 # L2 cache used for texture only
-gpgpu_n_mem                           12 # number of memory modules (e.g. memory controllers) in gpu
-gpgpu_n_sub_partition_per_mchannel                    2 # number of memory subpartition in each memory module
-gpgpu_n_mem_per_ctrlr                    1 # number of memory chips per memory controller
-gpgpu_memlatency_stat                   14 # track and display latency statistics 0x2 enables MC, 0x4 enables queue logs
-gpgpu_frfcfs_dram_sched_queue_size                   64 # 0 = unlimited (default); # entries per chip
-gpgpu_dram_return_queue_size                  192 # 0 = unlimited (default); # entries per chip
-gpgpu_dram_buswidth                    2 # default = 4 bytes (8 bytes per cycle at DDR)
-gpgpu_dram_burst_length                   16 # Burst length of each DRAM request (default = 4 data bus cycle)
-dram_data_command_freq_ratio                    4 # Frequency ratio between DRAM data bus and command bus (default = 2 times, i.e. DDR)
-gpgpu_dram_timing_opt nbk=16:CCD=4:RRD=12:RCD=24:RAS=55:RP=24:RC=78:CL=24:WL=8:CDLR=10:WR=24:nbkgrp=4:CCDL=6:RTPL=4 # DRAM timing parameters = {nbk:tCCD:tRRD:tRCD:tRAS:tRP:tRC:CL:WL:tCDLR:tWR:nbkgrp:tCCDL:tRTPL}
-gpgpu_l2_rop_latency                  194 # ROP queue latency (default 85)
-dram_latency                          96 # DRAM latency (default 30)
-dram_dual_bus_interface                    0 # dual_bus_interface (default = 0) 
-dram_bnk_indexing_policy                    0 # dram_bnk_indexing_policy (0 = normal indexing, 1 = Xoring with the higher bits) (Default = 0)
-dram_bnkgrp_indexing_policy                    1 # dram_bnkgrp_indexing_policy (0 = take higher bits, 1 = take lower bits) (Default = 0)
-dram_seperate_write_queue_enable                    0 # Seperate_Write_Queue_Enable
-dram_write_queue_size             32:28:16 # Write_Queue_Size
-dram_elimnate_rw_turnaround                    0 # elimnate_rw_turnaround i.e set tWTR and tRTW = 0
-icnt_flit_size                        40 # icnt_flit_size
-icnt_flit_size                        40 # icnt_flit_size
-mem_profiler                           0 # memory access runtime profiling (0 = not enabled)
-gpgpu_mem_addr_mapping dramid@8;00000000.00000000.00000000.00000000.0000RRRR.RRRRRRRR.RBBBCCCC.BCCSSSSS # mapping memory address to dram model {dramid@<start bit>;<memory address map>}
-gpgpu_mem_addr_test                    0 # run sweep test to check address mapping for aliased address
-gpgpu_mem_address_mask                    1 # 0 = old addressing mask, 1 = new addressing mask, 2 = new add. mask + flipped bank sel and chip sel bits
-gpgpu_memory_partition_indexing                    0 # 0 = no indexing, 1 = bitwise xoring, 2 = IPoly, 3 = custom indexing
-accelwattch_xml_file accelwattch_sass_sim.xml # AccelWattch XML file
-power_simulation_enabled                    1 # Turn on power simulator (1=On, 0=Off)
-power_per_cycle_dump                    1 # Dump detailed power output each cycle
-hw_perf_file_name            hw_perf.csv # Hardware Performance Statistics file
-hw_perf_bench_name    hw_perf_bench_name # Kernel Name in Hardware Performance Statistics file
-power_simulation_mode                    0 # Switch performance counter input for power simulation (0=Sim, 1=HW, 2=HW-Sim Hybrid)
-dvfs_enabled                           1 # Turn on DVFS for power model
-aggregate_power_stats                    0 # Accumulate power across all kernels
-accelwattch_hybrid_perfsim_L1_RH                    0 # Get L1 Read Hits for Accelwattch-Hybrid from Accel-Sim
-accelwattch_hybrid_perfsim_L1_RM                    0 # Get L1 Read Misses for Accelwattch-Hybrid from Accel-Sim
-accelwattch_hybrid_perfsim_L1_WH                    0 # Get L1 Write Hits for Accelwattch-Hybrid from Accel-Sim
-accelwattch_hybrid_perfsim_L1_WM                    0 # Get L1 Write Misses for Accelwattch-Hybrid from Accel-Sim
-accelwattch_hybrid_perfsim_L2_RH                    0 # Get L2 Read Hits for Accelwattch-Hybrid from Accel-Sim
-accelwattch_hybrid_perfsim_L2_RM                    0 # Get L2 Read Misses for Accelwattch-Hybrid from Accel-Sim
-accelwattch_hybrid_perfsim_L2_WH                    0 # Get L2 Write Hits for Accelwattch-Hybrid from Accel-Sim
-accelwattch_hybrid_perfsim_L2_WM                    0 # Get L2 Write Misses for Accelwattch-Hybrid from Accel-Sim
-accelwattch_hybrid_perfsim_CC_ACC                    0 # Get Constant Cache Acesses for Accelwattch-Hybrid from Accel-Sim
-accelwattch_hybrid_perfsim_SHARED_ACC                    0 # Get Shared Memory Acesses for Accelwattch-Hybrid from Accel-Sim
-accelwattch_hybrid_perfsim_DRAM_RD                    0 # Get DRAM Reads for Accelwattch-Hybrid from Accel-Sim
-accelwattch_hybrid_perfsim_DRAM_WR                    0 # Get DRAM Writes for Accelwattch-Hybrid from Accel-Sim
-accelwattch_hybrid_perfsim_NOC                    0 # Get Interconnect Acesses for Accelwattch-Hybrid from Accel-Sim
-accelwattch_hybrid_perfsim_PIPE_DUTY                    0 # Get Pipeline Duty Cycle Acesses for Accelwattch-Hybrid from Accel-Sim
-accelwattch_hybrid_perfsim_NUM_SM_IDLE                    0 # Get Number of Idle SMs for Accelwattch-Hybrid from Accel-Sim
-accelwattch_hybrid_perfsim_CYCLES                    0 # Get Executed Cycles for Accelwattch-Hybrid from Accel-Sim
-accelwattch_hybrid_perfsim_VOLTAGE                    0 # Get Chip Voltage for Accelwattch-Hybrid from Accel-Sim
-power_trace_enabled                    0 # produce a file for the power trace (1=On, 0=Off)
-power_trace_zlevel                     0 # Compression level of the power trace output log (0=no comp, 9=highest)
-steady_power_levels_enabled                    0 # produce a file for the steady power levels (1=On, 0=Off)
-steady_state_definition                  8:4 # allowed deviation:number of samples
-gpgpu_max_cycle                        0 # terminates gpu simulation early (0 = no limit)
-gpgpu_max_insn                         0 # terminates gpu simulation early (0 = no limit)
-gpgpu_max_cta                          0 # terminates gpu simulation early (0 = no limit)
-gpgpu_max_completed_cta                    0 # terminates gpu simulation early (0 = no limit)
-gpgpu_runtime_stat                  1000 # display runtime statistics such as dram utilization {<freq>:<flag>}
-liveness_message_freq                    1 # Minimum number of seconds between simulation liveness messages (0 = always print)
-gpgpu_compute_capability_major                    7 # Major compute capability version number
-gpgpu_compute_capability_minor                    5 # Minor compute capability version number
-gpgpu_flush_l1_cache                    1 # Flush L1 cache at the end of each kernel call
-gpgpu_flush_l2_cache                    0 # Flush L2 cache at the end of each kernel call
-gpgpu_deadlock_detect                    1 # Stop the simulation at deadlock (1=on (default), 0=off)
-gpgpu_ptx_instruction_classification                    0 # if enabled will classify ptx instruction types per kernel (Max 255 kernels now)
-gpgpu_ptx_sim_mode                     0 # Select between Performance (default) or Functional simulation (1)
-gpgpu_clock_domains 1365:1365:1365:3500.5 # Clock Domain Frequencies in MhZ {<Core Clock>:<ICNT Clock>:<L2 Clock>:<DRAM Clock>}
-gpgpu_max_concurrent_kernel                  128 # maximum kernels that can run concurrently on GPU, set this value according to max resident grids for your compute capability
-gpgpu_cflog_interval                    0 # Interval between each snapshot in control flow logger
-visualizer_enabled                     0 # Turn on visualizer output (1=On, 0=Off)
-visualizer_outputfile                 NULL # Specifies the output log file for visualizer
-visualizer_zlevel                      6 # Compression level of the visualizer output log (0=no comp, 9=highest)
-gpgpu_stack_size_limit                 1024 # GPU thread stack size
-gpgpu_heap_size_limit              8388608 # GPU malloc heap size 
-gpgpu_runtime_sync_depth_limit                    2 # GPU device runtime synchronize depth
-gpgpu_runtime_pending_launch_count_limit                 2048 # GPU device runtime pending launch count
-trace_enabled                          0 # Turn on traces
-trace_components                    none # comma seperated list of traces to enable. Complete list found in trace_streams.tup. Default none
-trace_sampling_core                    0 # The core which is printed using CORE_DPRINTF. Default 0
-trace_sampling_memory_partition                   -1 # The memory partition which is printed using MEMPART_DPRINTF. Default -1 (i.e. all)
-enable_ptx_file_line_stats                    1 # Turn on PTX source line statistic profiling. (1 = On)
-ptx_line_stats_filename gpgpu_inst_stats.txt # Output file for PTX source line statistics.
-gpgpu_kernel_launch_latency                 5000 # Kernel launch latency in cycles. Default: 0
-gpgpu_cdp_enabled                      0 # Turn on CDP
-gpgpu_TB_launch_latency                    0 # thread block launch latency in cycles. Default: 0
-mem_runtime_stat                     100 # memory access runtime profiling sampling freq
-L1D_metrics                            0 # memory access runtime profiling for L1 data cache
-noncoal_metrics                        0 # memory access runtime profiling for shared memory
-L2_metrics                             0 # memory access runtime profiling for L2 cache
-DRAM_metrics                           0 # memory access runtime profiling for DRAM
-Shmem_metrics                          0 # memory access runtime profiling for noncoalesced accesses
-store_enable                           0 # Enable stores for memory profiling
-accumulate_stats                       0 # Accumulate stats for the memory profiling
-dump_enable                            0 # Process dump enable flag - (def = 0)
-flush_l1d                              0 # Enable flushings for L1D caches - (default = 0)
-flush_l2                               0 # Enable flushings for L2 caches - (default = 0)
-flush_dram                             0 # Enable flushings for DRAM - (default = 0)
-flush_noncoalesceds                    0 # Enable flushings for non coalesced accesses - (default = 0)
-flush_shmems                           0 # Enable flushings for shared memory accesses - (default = 0)
-error_percentage                       2 # Error percentage for the flushes - (default = 1)
-flush_acc_type                         2 # Flush access types
-monitor_sampling_cycle                  200 # Monitoring sampling cycle - (default = 5000)
DRAM Timing Options:
nbk                                    16 # number of banks
CCD                                     4 # column to column delay
RRD                                    12 # minimal delay between activation of rows in different banks
RCD                                    24 # row to column delay
RAS                                    55 # time needed to activate row
RP                                     24 # time needed to precharge (deactivate) row
RC                                     78 # row cycle time
CDLR                                   10 # switching from write to read (changes tWTR)
WR                                     24 # last data-in to row precharge
CL                                     24 # CAS latency
WL                                      8 # Write latency
nbkgrp                                  4 # number of bank groups
CCDL                                    6 # column to column delay between accesses to different bank groups
RTPL                                    4 # read to precharge delay between accesses to different bank groups
Total number of memory sub partition = 24
addr_dec_mask[CHIP]  = 0000000000000000 	high:64 low:0
addr_dec_mask[BK]    = 0000000000007080 	high:15 low:7
addr_dec_mask[ROW]   = 000000000fff8000 	high:28 low:15
addr_dec_mask[COL]   = 0000000000000f7f 	high:12 low:0
addr_dec_mask[BURST] = 000000000000001f 	high:5 low:0
sub_partition_id_mask = 0000000000000080
GPGPU-Sim uArch: clock freqs: 1365000000.000000:1365000000.000000:1365000000.000000:3500500000.000000
GPGPU-Sim uArch: clock periods: 0.00000000073260073260:0.00000000073260073260:0.00000000073260073260:0.00000000028567347522
*** Initializing Memory Statistics ***
--------------------------------------------------------------
L2 access stats (for 0'th subPartition) 
--	Kid = 0 || L2 Acc = 182083, -- Miss = 135697, rate = 0.7452, -- PendHits = 23991, rate = 0.1318-- ResFail = 0, rate = 0.0000
Error Per = 100 || Flushes = 1356 || slicingInterval = 5000
--	Kid = 1 || L2 Acc = 181884, -- Miss = 135690, rate = 0.7460, -- PendHits = 22837, rate = 0.1256-- ResFail = 0, rate = 0.0000
Error Per = 100 || Flushes = 1356 || slicingInterval = 5000
--	Kid = 2 || L2 Acc = 182179, -- Miss = 135671, rate = 0.7447, -- PendHits = 23233, rate = 0.1275-- ResFail = 0, rate = 0.0000
Error Per = 100 || Flushes = 1356 || slicingInterval = 5000
--	Kid = 3 || L2 Acc = 181153, -- Miss = 135698, rate = 0.7491, -- PendHits = 21566, rate = 0.1190-- ResFail = 0, rate = 0.0000
Error Per = 100 || Flushes = 1356 || slicingInterval = 5000
--	Kid = 4 || L2 Acc = 181240, -- Miss = 135679, rate = 0.7486, -- PendHits = 22370, rate = 0.1234-- ResFail = 0, rate = 0.0000
Error Per = 100 || Flushes = 1356 || slicingInterval = 5000
--	Kid = 5 || L2 Acc = 181757, -- Miss = 135730, rate = 0.7468, -- PendHits = 22827, rate = 0.1256-- ResFail = 0, rate = 0.0000
Error Per = 100 || Flushes = 1357 || slicingInterval = 5000
--	Kid = 6 || L2 Acc = 182518, -- Miss = 135689, rate = 0.7434, -- PendHits = 23387, rate = 0.1281-- ResFail = 0, rate = 0.0000
Error Per = 100 || Flushes = 1356 || slicingInterval = 5000
--	Kid = 7 || L2 Acc = 181744, -- Miss = 135674, rate = 0.7465, -- PendHits = 23444, rate = 0.1290-- ResFail = 0, rate = 0.0000
Error Per = 100 || Flushes = 1356 || slicingInterval = 5000
--	Kid = 8 || L2 Acc = 182105, -- Miss = 135706, rate = 0.7452, -- PendHits = 23214, rate = 0.1275-- ResFail = 0, rate = 0.0000
Error Per = 100 || Flushes = 1357 || slicingInterval = 5000
--	Kid = 9 || L2 Acc = 177283, -- Miss = 133107, rate = 0.7508, -- PendHits = 22431, rate = 0.1265-- ResFail = 0, rate = 0.0000
Error Per = 100 || Flushes = 1331 || slicingInterval = 5000
--------------------------------------------------------------
L2 access stats (for 1'th subPartition) 
--	Kid = 0 || L2 Acc = 181577, -- Miss = 135677, rate = 0.7472, -- PendHits = 23709, rate = 0.1306-- ResFail = 0, rate = 0.0000
Error Per = 100 || Flushes = 1356 || slicingInterval = 5000
--	Kid = 1 || L2 Acc = 182191, -- Miss = 135690, rate = 0.7448, -- PendHits = 23069, rate = 0.1266-- ResFail = 0, rate = 0.0000
Error Per = 100 || Flushes = 1356 || slicingInterval = 5000
--	Kid = 2 || L2 Acc = 182289, -- Miss = 135697, rate = 0.7444, -- PendHits = 23430, rate = 0.1285-- ResFail = 0, rate = 0.0000
Error Per = 100 || Flushes = 1356 || slicingInterval = 5000
--	Kid = 3 || L2 Acc = 180853, -- Miss = 135676, rate = 0.7502, -- PendHits = 21446, rate = 0.1186-- ResFail = 0, rate = 0.0000
Error Per = 100 || Flushes = 1356 || slicingInterval = 5000
--	Kid = 4 || L2 Acc = 181338, -- Miss = 135661, rate = 0.7481, -- PendHits = 22469, rate = 0.1239-- ResFail = 0, rate = 0.0000
Error Per = 100 || Flushes = 1356 || slicingInterval = 5000
--	Kid = 5 || L2 Acc = 182088, -- Miss = 135717, rate = 0.7453, -- PendHits = 22933, rate = 0.1259-- ResFail = 0, rate = 0.0000
Error Per = 100 || Flushes = 1357 || slicingInterval = 5000
--	Kid = 6 || L2 Acc = 181980, -- Miss = 135715, rate = 0.7458, -- PendHits = 23341, rate = 0.1283-- ResFail = 0, rate = 0.0000
Error Per = 100 || Flushes = 1357 || slicingInterval = 5000
--	Kid = 7 || L2 Acc = 182034, -- Miss = 135684, rate = 0.7454, -- PendHits = 23678, rate = 0.1301-- ResFail = 0, rate = 0.0000
Error Per = 100 || Flushes = 1356 || slicingInterval = 5000
--	Kid = 8 || L2 Acc = 182272, -- Miss = 135676, rate = 0.7444, -- PendHits = 23305, rate = 0.1279-- ResFail = 0, rate = 0.0000
Error Per = 100 || Flushes = 1356 || slicingInterval = 5000
--	Kid = 9 || L2 Acc = 177325, -- Miss = 133093, rate = 0.7506, -- PendHits = 22448, rate = 0.1266-- ResFail = 0, rate = 0.0000
Error Per = 100 || Flushes = 1330 || slicingInterval = 5000
--------------------------------------------------------------
L2 access stats (for 2'th subPartition) 
--	Kid = 0 || L2 Acc = 181754, -- Miss = 135706, rate = 0.7466, -- PendHits = 23897, rate = 0.1315-- ResFail = 0, rate = 0.0000
Error Per = 100 || Flushes = 1357 || slicingInterval = 5000
--	Kid = 1 || L2 Acc = 182329, -- Miss = 135690, rate = 0.7442, -- PendHits = 23160, rate = 0.1270-- ResFail = 0, rate = 0.0000
Error Per = 100 || Flushes = 1356 || slicingInterval = 5000
--	Kid = 2 || L2 Acc = 181847, -- Miss = 135684, rate = 0.7461, -- PendHits = 23210, rate = 0.1276-- ResFail = 0, rate = 0.0000
Error Per = 100 || Flushes = 1356 || slicingInterval = 5000
--	Kid = 3 || L2 Acc = 180953, -- Miss = 135675, rate = 0.7498, -- PendHits = 21543, rate = 0.1191-- ResFail = 0, rate = 0.0000
Error Per = 100 || Flushes = 1356 || slicingInterval = 5000
--	Kid = 4 || L2 Acc = 181583, -- Miss = 135684, rate = 0.7472, -- PendHits = 22512, rate = 0.1240-- ResFail = 0, rate = 0.0000
Error Per = 100 || Flushes = 1356 || slicingInterval = 5000
--	Kid = 5 || L2 Acc = 181570, -- Miss = 135732, rate = 0.7475, -- PendHits = 22765, rate = 0.1254-- ResFail = 0, rate = 0.0000
Error Per = 100 || Flushes = 1357 || slicingInterval = 5000
--	Kid = 6 || L2 Acc = 182175, -- Miss = 135690, rate = 0.7448, -- PendHits = 23581, rate = 0.1294-- ResFail = 0, rate = 0.0000
Error Per = 100 || Flushes = 1356 || slicingInterval = 5000
--	Kid = 7 || L2 Acc = 182200, -- Miss = 135682, rate = 0.7447, -- PendHits = 23785, rate = 0.1305-- ResFail = 0, rate = 0.0000
Error Per = 100 || Flushes = 1356 || slicingInterval = 5000
--	Kid = 8 || L2 Acc = 181898, -- Miss = 135682, rate = 0.7459, -- PendHits = 22912, rate = 0.1260-- ResFail = 0, rate = 0.0000
Error Per = 100 || Flushes = 1356 || slicingInterval = 5000
--	Kid = 9 || L2 Acc = 177328, -- Miss = 133100, rate = 0.7506, -- PendHits = 22391, rate = 0.1263-- ResFail = 0, rate = 0.0000
Error Per = 100 || Flushes = 1331 || slicingInterval = 5000
--------------------------------------------------------------
L2 access stats (for 3'th subPartition) 
--	Kid = 0 || L2 Acc = 182071, -- Miss = 135674, rate = 0.7452, -- PendHits = 24018, rate = 0.1319-- ResFail = 0, rate = 0.0000
Error Per = 100 || Flushes = 1356 || slicingInterval = 5000
--	Kid = 1 || L2 Acc = 181915, -- Miss = 135658, rate = 0.7457, -- PendHits = 23053, rate = 0.1267-- ResFail = 0, rate = 0.0000
Error Per = 100 || Flushes = 1356 || slicingInterval = 5000
--	Kid = 2 || L2 Acc = 182133, -- Miss = 135683, rate = 0.7450, -- PendHits = 23374, rate = 0.1283-- ResFail = 0, rate = 0.0000
Error Per = 100 || Flushes = 1356 || slicingInterval = 5000
--	Kid = 3 || L2 Acc = 181177, -- Miss = 135697, rate = 0.7490, -- PendHits = 21768, rate = 0.1201-- ResFail = 0, rate = 0.0000
Error Per = 100 || Flushes = 1356 || slicingInterval = 5000
--	Kid = 4 || L2 Acc = 181242, -- Miss = 135678, rate = 0.7486, -- PendHits = 22138, rate = 0.1221-- ResFail = 0, rate = 0.0000
Error Per = 100 || Flushes = 1356 || slicingInterval = 5000
--	Kid = 5 || L2 Acc = 181747, -- Miss = 135697, rate = 0.7466, -- PendHits = 22727, rate = 0.1250-- ResFail = 0, rate = 0.0000
Error Per = 100 || Flushes = 1356 || slicingInterval = 5000
--	Kid = 6 || L2 Acc = 182476, -- Miss = 135667, rate = 0.7435, -- PendHits = 23705, rate = 0.1299-- ResFail = 0, rate = 0.0000
Error Per = 100 || Flushes = 1356 || slicingInterval = 5000
--	Kid = 7 || L2 Acc = 181774, -- Miss = 135696, rate = 0.7465, -- PendHits = 23666, rate = 0.1302-- ResFail = 0, rate = 0.0000
Error Per = 100 || Flushes = 1356 || slicingInterval = 5000
--	Kid = 8 || L2 Acc = 182227, -- Miss = 135708, rate = 0.7447, -- PendHits = 23098, rate = 0.1268-- ResFail = 0, rate = 0.0000
Error Per = 100 || Flushes = 1357 || slicingInterval = 5000
--	Kid = 9 || L2 Acc = 177326, -- Miss = 133088, rate = 0.7505, -- PendHits = 22459, rate = 0.1267-- ResFail = 0, rate = 0.0000
Error Per = 100 || Flushes = 1330 || slicingInterval = 5000
--------------------------------------------------------------
L2 access stats (for 4'th subPartition) 
--	Kid = 0 || L2 Acc = 181562, -- Miss = 135673, rate = 0.7473, -- PendHits = 23512, rate = 0.1295-- ResFail = 0, rate = 0.0000
Error Per = 100 || Flushes = 1356 || slicingInterval = 5000
--	Kid = 1 || L2 Acc = 182183, -- Miss = 135672, rate = 0.7447, -- PendHits = 23054, rate = 0.1265-- ResFail = 0, rate = 0.0000
Error Per = 100 || Flushes = 1356 || slicingInterval = 5000
--	Kid = 2 || L2 Acc = 182252, -- Miss = 135707, rate = 0.7446, -- PendHits = 23523, rate = 0.1291-- ResFail = 0, rate = 0.0000
Error Per = 100 || Flushes = 1357 || slicingInterval = 5000
--	Kid = 3 || L2 Acc = 180831, -- Miss = 135665, rate = 0.7502, -- PendHits = 21718, rate = 0.1201-- ResFail = 0, rate = 0.0000
Error Per = 100 || Flushes = 1356 || slicingInterval = 5000
--	Kid = 4 || L2 Acc = 181286, -- Miss = 135658, rate = 0.7483, -- PendHits = 22118, rate = 0.1220-- ResFail = 0, rate = 0.0000
Error Per = 100 || Flushes = 1356 || slicingInterval = 5000
--	Kid = 5 || L2 Acc = 182064, -- Miss = 135693, rate = 0.7453, -- PendHits = 22832, rate = 0.1254-- ResFail = 0, rate = 0.0000
Error Per = 100 || Flushes = 1356 || slicingInterval = 5000
--	Kid = 6 || L2 Acc = 181935, -- Miss = 135706, rate = 0.7459, -- PendHits = 23409, rate = 0.1287-- ResFail = 0, rate = 0.0000
Error Per = 100 || Flushes = 1357 || slicingInterval = 5000
--	Kid = 7 || L2 Acc = 182086, -- Miss = 135698, rate = 0.7452, -- PendHits = 23657, rate = 0.1299-- ResFail = 0, rate = 0.0000
Error Per = 100 || Flushes = 1356 || slicingInterval = 5000
--	Kid = 8 || L2 Acc = 182409, -- Miss = 135691, rate = 0.7439, -- PendHits = 23117, rate = 0.1267-- ResFail = 0, rate = 0.0000
Error Per = 100 || Flushes = 1356 || slicingInterval = 5000
--	Kid = 9 || L2 Acc = 177311, -- Miss = 133100, rate = 0.7507, -- PendHits = 22471, rate = 0.1267-- ResFail = 0, rate = 0.0000
Error Per = 100 || Flushes = 1331 || slicingInterval = 5000
--------------------------------------------------------------
L2 access stats (for 5'th subPartition) 
--	Kid = 0 || L2 Acc = 181755, -- Miss = 135702, rate = 0.7466, -- PendHits = 23672, rate = 0.1302-- ResFail = 0, rate = 0.0000
Error Per = 100 || Flushes = 1357 || slicingInterval = 5000
--	Kid = 1 || L2 Acc = 182325, -- Miss = 135673, rate = 0.7441, -- PendHits = 23202, rate = 0.1273-- ResFail = 0, rate = 0.0000
Error Per = 100 || Flushes = 1356 || slicingInterval = 5000
--	Kid = 2 || L2 Acc = 181852, -- Miss = 135682, rate = 0.7461, -- PendHits = 23502, rate = 0.1292-- ResFail = 0, rate = 0.0000
Error Per = 100 || Flushes = 1356 || slicingInterval = 5000
--	Kid = 3 || L2 Acc = 180920, -- Miss = 135656, rate = 0.7498, -- PendHits = 21722, rate = 0.1201-- ResFail = 0, rate = 0.0000
Error Per = 100 || Flushes = 1356 || slicingInterval = 5000
--	Kid = 4 || L2 Acc = 181494, -- Miss = 135675, rate = 0.7475, -- PendHits = 22250, rate = 0.1226-- ResFail = 0, rate = 0.0000
Error Per = 100 || Flushes = 1356 || slicingInterval = 5000
--	Kid = 5 || L2 Acc = 181526, -- Miss = 135698, rate = 0.7475, -- PendHits = 22606, rate = 0.1245-- ResFail = 0, rate = 0.0000
Error Per = 100 || Flushes = 1356 || slicingInterval = 5000
--	Kid = 6 || L2 Acc = 182134, -- Miss = 135699, rate = 0.7451, -- PendHits = 23581, rate = 0.1295-- ResFail = 0, rate = 0.0000
Error Per = 100 || Flushes = 1356 || slicingInterval = 5000
--	Kid = 7 || L2 Acc = 182171, -- Miss = 135674, rate = 0.7448, -- PendHits = 23681, rate = 0.1300-- ResFail = 0, rate = 0.0000
Error Per = 100 || Flushes = 1356 || slicingInterval = 5000
--	Kid = 8 || L2 Acc = 182002, -- Miss = 135709, rate = 0.7456, -- PendHits = 23018, rate = 0.1265-- ResFail = 0, rate = 0.0000
Error Per = 100 || Flushes = 1357 || slicingInterval = 5000
--	Kid = 9 || L2 Acc = 177305, -- Miss = 133112, rate = 0.7508, -- PendHits = 22441, rate = 0.1266-- ResFail = 0, rate = 0.0000
Error Per = 100 || Flushes = 1331 || slicingInterval = 5000
--------------------------------------------------------------
L2 access stats (for 6'th subPartition) 
--	Kid = 0 || L2 Acc = 182059, -- Miss = 135677, rate = 0.7452, -- PendHits = 23634, rate = 0.1298-- ResFail = 0, rate = 0.0000
Error Per = 100 || Flushes = 1356 || slicingInterval = 5000
--	Kid = 1 || L2 Acc = 181900, -- Miss = 135653, rate = 0.7458, -- PendHits = 22936, rate = 0.1261-- ResFail = 0, rate = 0.0000
Error Per = 100 || Flushes = 1356 || slicingInterval = 5000
--	Kid = 2 || L2 Acc = 182159, -- Miss = 135689, rate = 0.7449, -- PendHits = 23393, rate = 0.1284-- ResFail = 0, rate = 0.0000
Error Per = 100 || Flushes = 1356 || slicingInterval = 5000
--	Kid = 3 || L2 Acc = 181133, -- Miss = 135690, rate = 0.7491, -- PendHits = 21903, rate = 0.1209-- ResFail = 0, rate = 0.0000
Error Per = 100 || Flushes = 1356 || slicingInterval = 5000
--	Kid = 4 || L2 Acc = 181151, -- Miss = 135675, rate = 0.7490, -- PendHits = 22147, rate = 0.1223-- ResFail = 0, rate = 0.0000
Error Per = 100 || Flushes = 1356 || slicingInterval = 5000
--	Kid = 5 || L2 Acc = 181716, -- Miss = 135673, rate = 0.7466, -- PendHits = 22685, rate = 0.1248-- ResFail = 0, rate = 0.0000
Error Per = 100 || Flushes = 1356 || slicingInterval = 5000
--	Kid = 6 || L2 Acc = 182477, -- Miss = 135678, rate = 0.7435, -- PendHits = 23634, rate = 0.1295-- ResFail = 0, rate = 0.0000
Error Per = 100 || Flushes = 1356 || slicingInterval = 5000
--	Kid = 7 || L2 Acc = 181708, -- Miss = 135682, rate = 0.7467, -- PendHits = 23459, rate = 0.1291-- ResFail = 0, rate = 0.0000
Error Per = 100 || Flushes = 1356 || slicingInterval = 5000
--	Kid = 8 || L2 Acc = 182298, -- Miss = 135729, rate = 0.7445, -- PendHits = 23115, rate = 0.1268-- ResFail = 0, rate = 0.0000
Error Per = 100 || Flushes = 1357 || slicingInterval = 5000
--	Kid = 9 || L2 Acc = 177288, -- Miss = 133108, rate = 0.7508, -- PendHits = 22279, rate = 0.1257-- ResFail = 0, rate = 0.0000
Error Per = 100 || Flushes = 1331 || slicingInterval = 5000
--------------------------------------------------------------
L2 access stats (for 7'th subPartition) 
--	Kid = 0 || L2 Acc = 181491, -- Miss = 135677, rate = 0.7476, -- PendHits = 23340, rate = 0.1286-- ResFail = 0, rate = 0.0000
Error Per = 100 || Flushes = 1356 || slicingInterval = 5000
--	Kid = 1 || L2 Acc = 182212, -- Miss = 135697, rate = 0.7447, -- PendHits = 23238, rate = 0.1275-- ResFail = 0, rate = 0.0000
Error Per = 100 || Flushes = 1356 || slicingInterval = 5000
--	Kid = 2 || L2 Acc = 182299, -- Miss = 135711, rate = 0.7444, -- PendHits = 23495, rate = 0.1289-- ResFail = 0, rate = 0.0000
Error Per = 100 || Flushes = 1357 || slicingInterval = 5000
--	Kid = 3 || L2 Acc = 180862, -- Miss = 135673, rate = 0.7501, -- PendHits = 21688, rate = 0.1199-- ResFail = 0, rate = 0.0000
Error Per = 100 || Flushes = 1356 || slicingInterval = 5000
--	Kid = 4 || L2 Acc = 181258, -- Miss = 135670, rate = 0.7485, -- PendHits = 22255, rate = 0.1228-- ResFail = 0, rate = 0.0000
Error Per = 100 || Flushes = 1356 || slicingInterval = 5000
--	Kid = 5 || L2 Acc = 182044, -- Miss = 135690, rate = 0.7454, -- PendHits = 22927, rate = 0.1259-- ResFail = 0, rate = 0.0000
Error Per = 100 || Flushes = 1356 || slicingInterval = 5000
--	Kid = 6 || L2 Acc = 181974, -- Miss = 135709, rate = 0.7458, -- PendHits = 23563, rate = 0.1295-- ResFail = 0, rate = 0.0000
Error Per = 100 || Flushes = 1357 || slicingInterval = 5000
--	Kid = 7 || L2 Acc = 181975, -- Miss = 135668, rate = 0.7455, -- PendHits = 23485, rate = 0.1291-- ResFail = 0, rate = 0.0000
Error Per = 100 || Flushes = 1356 || slicingInterval = 5000
--	Kid = 8 || L2 Acc = 182409, -- Miss = 135714, rate = 0.7440, -- PendHits = 23137, rate = 0.1268-- ResFail = 0, rate = 0.0000
Error Per = 100 || Flushes = 1357 || slicingInterval = 5000
--	Kid = 9 || L2 Acc = 177272, -- Miss = 133103, rate = 0.7508, -- PendHits = 22226, rate = 0.1254-- ResFail = 0, rate = 0.0000
Error Per = 100 || Flushes = 1331 || slicingInterval = 5000
--------------------------------------------------------------
L2 access stats (for 8'th subPartition) 
--	Kid = 0 || L2 Acc = 181664, -- Miss = 135710, rate = 0.7470, -- PendHits = 23562, rate = 0.1297-- ResFail = 0, rate = 0.0000
Error Per = 100 || Flushes = 1357 || slicingInterval = 5000
--	Kid = 1 || L2 Acc = 182331, -- Miss = 135706, rate = 0.7443, -- PendHits = 23185, rate = 0.1272-- ResFail = 0, rate = 0.0000
Error Per = 100 || Flushes = 1357 || slicingInterval = 5000
--	Kid = 2 || L2 Acc = 181874, -- Miss = 135697, rate = 0.7461, -- PendHits = 23282, rate = 0.1280-- ResFail = 0, rate = 0.0000
Error Per = 100 || Flushes = 1356 || slicingInterval = 5000
--	Kid = 3 || L2 Acc = 180970, -- Miss = 135644, rate = 0.7495, -- PendHits = 21706, rate = 0.1199-- ResFail = 0, rate = 0.0000
Error Per = 100 || Flushes = 1356 || slicingInterval = 5000
--	Kid = 4 || L2 Acc = 181479, -- Miss = 135688, rate = 0.7477, -- PendHits = 22227, rate = 0.1225-- ResFail = 0, rate = 0.0000
Error Per = 100 || Flushes = 1356 || slicingInterval = 5000
--	Kid = 5 || L2 Acc = 181528, -- Miss = 135709, rate = 0.7476, -- PendHits = 22791, rate = 0.1256-- ResFail = 0, rate = 0.0000
Error Per = 100 || Flushes = 1357 || slicingInterval = 5000
--	Kid = 6 || L2 Acc = 182188, -- Miss = 135705, rate = 0.7449, -- PendHits = 23579, rate = 0.1294-- ResFail = 0, rate = 0.0000
Error Per = 100 || Flushes = 1357 || slicingInterval = 5000
--	Kid = 7 || L2 Acc = 182109, -- Miss = 135650, rate = 0.7449, -- PendHits = 23458, rate = 0.1288-- ResFail = 0, rate = 0.0000
Error Per = 100 || Flushes = 1356 || slicingInterval = 5000
--	Kid = 8 || L2 Acc = 181959, -- Miss = 135716, rate = 0.7459, -- PendHits = 22871, rate = 0.1257-- ResFail = 0, rate = 0.0000
Error Per = 100 || Flushes = 1357 || slicingInterval = 5000
--	Kid = 9 || L2 Acc = 177276, -- Miss = 133086, rate = 0.7507, -- PendHits = 22107, rate = 0.1247-- ResFail = 0, rate = 0.0000
Error Per = 100 || Flushes = 1330 || slicingInterval = 5000
--------------------------------------------------------------
L2 access stats (for 9'th subPartition) 
--	Kid = 0 || L2 Acc = 182003, -- Miss = 135688, rate = 0.7455, -- PendHits = 23802, rate = 0.1308-- ResFail = 0, rate = 0.0000
Error Per = 100 || Flushes = 1356 || slicingInterval = 5000
--	Kid = 1 || L2 Acc = 181900, -- Miss = 135691, rate = 0.7460, -- PendHits = 23028, rate = 0.1266-- ResFail = 0, rate = 0.0000
Error Per = 100 || Flushes = 1356 || slicingInterval = 5000
--	Kid = 2 || L2 Acc = 182170, -- Miss = 135695, rate = 0.7449, -- PendHits = 23511, rate = 0.1291-- ResFail = 0, rate = 0.0000
Error Per = 100 || Flushes = 1356 || slicingInterval = 5000
--	Kid = 3 || L2 Acc = 181202, -- Miss = 135678, rate = 0.7488, -- PendHits = 21714, rate = 0.1198-- ResFail = 0, rate = 0.0000
Error Per = 100 || Flushes = 1356 || slicingInterval = 5000
--	Kid = 4 || L2 Acc = 181191, -- Miss = 135676, rate = 0.7488, -- PendHits = 22074, rate = 0.1218-- ResFail = 0, rate = 0.0000
Error Per = 100 || Flushes = 1356 || slicingInterval = 5000
--	Kid = 5 || L2 Acc = 181702, -- Miss = 135694, rate = 0.7468, -- PendHits = 22920, rate = 0.1261-- ResFail = 0, rate = 0.0000
Error Per = 100 || Flushes = 1356 || slicingInterval = 5000
--	Kid = 6 || L2 Acc = 182546, -- Miss = 135716, rate = 0.7435, -- PendHits = 23722, rate = 0.1300-- ResFail = 0, rate = 0.0000
Error Per = 100 || Flushes = 1357 || slicingInterval = 5000
--	Kid = 7 || L2 Acc = 181707, -- Miss = 135682, rate = 0.7467, -- PendHits = 23295, rate = 0.1282-- ResFail = 0, rate = 0.0000
Error Per = 100 || Flushes = 1356 || slicingInterval = 5000
--	Kid = 8 || L2 Acc = 182249, -- Miss = 135720, rate = 0.7447, -- PendHits = 23121, rate = 0.1269-- ResFail = 0, rate = 0.0000
Error Per = 100 || Flushes = 1357 || slicingInterval = 5000
--	Kid = 9 || L2 Acc = 177289, -- Miss = 133084, rate = 0.7507, -- PendHits = 21999, rate = 0.1241-- ResFail = 0, rate = 0.0000
Error Per = 100 || Flushes = 1330 || slicingInterval = 5000
--------------------------------------------------------------
L2 access stats (for 10'th subPartition) 
--	Kid = 0 || L2 Acc = 181512, -- Miss = 135682, rate = 0.7475, -- PendHits = 23663, rate = 0.1304-- ResFail = 0, rate = 0.0000
Error Per = 100 || Flushes = 1356 || slicingInterval = 5000
--	Kid = 1 || L2 Acc = 182164, -- Miss = 135707, rate = 0.7450, -- PendHits = 23016, rate = 0.1263-- ResFail = 0, rate = 0.0000
Error Per = 100 || Flushes = 1357 || slicingInterval = 5000
--	Kid = 2 || L2 Acc = 182303, -- Miss = 135714, rate = 0.7444, -- PendHits = 23539, rate = 0.1291-- ResFail = 0, rate = 0.0000
Error Per = 100 || Flushes = 1357 || slicingInterval = 5000
--	Kid = 3 || L2 Acc = 180858, -- Miss = 135665, rate = 0.7501, -- PendHits = 21476, rate = 0.1187-- ResFail = 0, rate = 0.0000
Error Per = 100 || Flushes = 1356 || slicingInterval = 5000
--	Kid = 4 || L2 Acc = 181321, -- Miss = 135652, rate = 0.7481, -- PendHits = 22224, rate = 0.1226-- ResFail = 0, rate = 0.0000
Error Per = 100 || Flushes = 1356 || slicingInterval = 5000
--	Kid = 5 || L2 Acc = 182014, -- Miss = 135711, rate = 0.7456, -- PendHits = 22991, rate = 0.1263-- ResFail = 0, rate = 0.0000
Error Per = 100 || Flushes = 1357 || slicingInterval = 5000
--	Kid = 6 || L2 Acc = 182011, -- Miss = 135738, rate = 0.7458, -- PendHits = 23537, rate = 0.1293-- ResFail = 0, rate = 0.0000
Error Per = 100 || Flushes = 1357 || slicingInterval = 5000
--	Kid = 7 || L2 Acc = 182008, -- Miss = 135694, rate = 0.7455, -- PendHits = 23220, rate = 0.1276-- ResFail = 0, rate = 0.0000
Error Per = 100 || Flushes = 1356 || slicingInterval = 5000
--	Kid = 8 || L2 Acc = 182379, -- Miss = 135698, rate = 0.7440, -- PendHits = 23173, rate = 0.1271-- ResFail = 0, rate = 0.0000
Error Per = 100 || Flushes = 1356 || slicingInterval = 5000
--	Kid = 9 || L2 Acc = 177319, -- Miss = 133095, rate = 0.7506, -- PendHits = 21870, rate = 0.1233-- ResFail = 0, rate = 0.0000
Error Per = 100 || Flushes = 1330 || slicingInterval = 5000
--------------------------------------------------------------
L2 access stats (for 11'th subPartition) 
--	Kid = 0 || L2 Acc = 181698, -- Miss = 135710, rate = 0.7469, -- PendHits = 23818, rate = 0.1311-- ResFail = 0, rate = 0.0000
Error Per = 100 || Flushes = 1357 || slicingInterval = 5000
--	Kid = 1 || L2 Acc = 182321, -- Miss = 135706, rate = 0.7443, -- PendHits = 23071, rate = 0.1265-- ResFail = 0, rate = 0.0000
Error Per = 100 || Flushes = 1357 || slicingInterval = 5000
--	Kid = 2 || L2 Acc = 181871, -- Miss = 135694, rate = 0.7461, -- PendHits = 23267, rate = 0.1279-- ResFail = 0, rate = 0.0000
Error Per = 100 || Flushes = 1356 || slicingInterval = 5000
--	Kid = 3 || L2 Acc = 180905, -- Miss = 135653, rate = 0.7499, -- PendHits = 21682, rate = 0.1199-- ResFail = 0, rate = 0.0000
Error Per = 100 || Flushes = 1356 || slicingInterval = 5000
--	Kid = 4 || L2 Acc = 181565, -- Miss = 135674, rate = 0.7472, -- PendHits = 22464, rate = 0.1237-- ResFail = 0, rate = 0.0000
Error Per = 100 || Flushes = 1356 || slicingInterval = 5000
--	Kid = 5 || L2 Acc = 181506, -- Miss = 135731, rate = 0.7478, -- PendHits = 22851, rate = 0.1259-- ResFail = 0, rate = 0.0000
Error Per = 100 || Flushes = 1357 || slicingInterval = 5000
--	Kid = 6 || L2 Acc = 182179, -- Miss = 135701, rate = 0.7449, -- PendHits = 23432, rate = 0.1286-- ResFail = 0, rate = 0.0000
Error Per = 100 || Flushes = 1357 || slicingInterval = 5000
--	Kid = 7 || L2 Acc = 182114, -- Miss = 135679, rate = 0.7450, -- PendHits = 23236, rate = 0.1276-- ResFail = 0, rate = 0.0000
Error Per = 100 || Flushes = 1356 || slicingInterval = 5000
--	Kid = 8 || L2 Acc = 181960, -- Miss = 135676, rate = 0.7456, -- PendHits = 23087, rate = 0.1269-- ResFail = 0, rate = 0.0000
Error Per = 100 || Flushes = 1356 || slicingInterval = 5000
--	Kid = 9 || L2 Acc = 177327, -- Miss = 133113, rate = 0.7507, -- PendHits = 22063, rate = 0.1244-- ResFail = 0, rate = 0.0000
Error Per = 100 || Flushes = 1331 || slicingInterval = 5000
--------------------------------------------------------------
L2 access stats (for 12'th subPartition) 
--	Kid = 0 || L2 Acc = 182031, -- Miss = 135699, rate = 0.7455, -- PendHits = 23790, rate = 0.1307-- ResFail = 0, rate = 0.0000
Error Per = 100 || Flushes = 1356 || slicingInterval = 5000
--	Kid = 1 || L2 Acc = 181906, -- Miss = 135682, rate = 0.7459, -- PendHits = 22853, rate = 0.1256-- ResFail = 0, rate = 0.0000
Error Per = 100 || Flushes = 1356 || slicingInterval = 5000
--	Kid = 2 || L2 Acc = 182142, -- Miss = 135694, rate = 0.7450, -- PendHits = 23212, rate = 0.1274-- ResFail = 0, rate = 0.0000
Error Per = 100 || Flushes = 1356 || slicingInterval = 5000
--	Kid = 3 || L2 Acc = 181101, -- Miss = 135694, rate = 0.7493, -- PendHits = 21894, rate = 0.1209-- ResFail = 0, rate = 0.0000
Error Per = 100 || Flushes = 1356 || slicingInterval = 5000
--	Kid = 4 || L2 Acc = 181273, -- Miss = 135675, rate = 0.7485, -- PendHits = 22215, rate = 0.1225-- ResFail = 0, rate = 0.0000
Error Per = 100 || Flushes = 1356 || slicingInterval = 5000
--	Kid = 5 || L2 Acc = 181729, -- Miss = 135706, rate = 0.7467, -- PendHits = 22882, rate = 0.1259-- ResFail = 0, rate = 0.0000
Error Per = 100 || Flushes = 1357 || slicingInterval = 5000
--	Kid = 6 || L2 Acc = 182492, -- Miss = 135689, rate = 0.7435, -- PendHits = 23257, rate = 0.1274-- ResFail = 0, rate = 0.0000
Error Per = 100 || Flushes = 1356 || slicingInterval = 5000
--	Kid = 7 || L2 Acc = 181698, -- Miss = 135704, rate = 0.7469, -- PendHits = 22926, rate = 0.1262-- ResFail = 0, rate = 0.0000
Error Per = 100 || Flushes = 1357 || slicingInterval = 5000
--	Kid = 8 || L2 Acc = 182257, -- Miss = 135701, rate = 0.7446, -- PendHits = 23046, rate = 0.1264-- ResFail = 0, rate = 0.0000
Error Per = 100 || Flushes = 1357 || slicingInterval = 5000
--	Kid = 9 || L2 Acc = 177323, -- Miss = 133089, rate = 0.7505, -- PendHits = 22080, rate = 0.1245-- ResFail = 0, rate = 0.0000
Error Per = 100 || Flushes = 1330 || slicingInterval = 5000
--------------------------------------------------------------
L2 access stats (for 13'th subPartition) 
--	Kid = 0 || L2 Acc = 181503, -- Miss = 135691, rate = 0.7476, -- PendHits = 23442, rate = 0.1292-- ResFail = 0, rate = 0.0000
Error Per = 100 || Flushes = 1356 || slicingInterval = 5000
--	Kid = 1 || L2 Acc = 182207, -- Miss = 135700, rate = 0.7448, -- PendHits = 23112, rate = 0.1268-- ResFail = 0, rate = 0.0000
Error Per = 100 || Flushes = 1357 || slicingInterval = 5000
--	Kid = 2 || L2 Acc = 182273, -- Miss = 135701, rate = 0.7445, -- PendHits = 23441, rate = 0.1286-- ResFail = 0, rate = 0.0000
Error Per = 100 || Flushes = 1357 || slicingInterval = 5000
--	Kid = 3 || L2 Acc = 180776, -- Miss = 135659, rate = 0.7504, -- PendHits = 21482, rate = 0.1188-- ResFail = 0, rate = 0.0000
Error Per = 100 || Flushes = 1356 || slicingInterval = 5000
--	Kid = 4 || L2 Acc = 181388, -- Miss = 135650, rate = 0.7478, -- PendHits = 22215, rate = 0.1225-- ResFail = 0, rate = 0.0000
Error Per = 100 || Flushes = 1356 || slicingInterval = 5000
--	Kid = 5 || L2 Acc = 182127, -- Miss = 135710, rate = 0.7451, -- PendHits = 23071, rate = 0.1267-- ResFail = 0, rate = 0.0000
Error Per = 100 || Flushes = 1357 || slicingInterval = 5000
--	Kid = 6 || L2 Acc = 181978, -- Miss = 135719, rate = 0.7458, -- PendHits = 22943, rate = 0.1261-- ResFail = 0, rate = 0.0000
Error Per = 100 || Flushes = 1357 || slicingInterval = 5000
--	Kid = 7 || L2 Acc = 181961, -- Miss = 135696, rate = 0.7457, -- PendHits = 23189, rate = 0.1274-- ResFail = 0, rate = 0.0000
Error Per = 100 || Flushes = 1356 || slicingInterval = 5000
--	Kid = 8 || L2 Acc = 182387, -- Miss = 135682, rate = 0.7439, -- PendHits = 23158, rate = 0.1270-- ResFail = 0, rate = 0.0000
Error Per = 100 || Flushes = 1356 || slicingInterval = 5000
--	Kid = 9 || L2 Acc = 177333, -- Miss = 133074, rate = 0.7504, -- PendHits = 22176, rate = 0.1251-- ResFail = 0, rate = 0.0000
Error Per = 100 || Flushes = 1330 || slicingInterval = 5000
--------------------------------------------------------------
L2 access stats (for 14'th subPartition) 
--	Kid = 0 || L2 Acc = 181714, -- Miss = 135713, rate = 0.7468, -- PendHits = 23598, rate = 0.1299-- ResFail = 0, rate = 0.0000
Error Per = 100 || Flushes = 1357 || slicingInterval = 5000
--	Kid = 1 || L2 Acc = 182339, -- Miss = 135696, rate = 0.7442, -- PendHits = 23329, rate = 0.1279-- ResFail = 0, rate = 0.0000
Error Per = 100 || Flushes = 1356 || slicingInterval = 5000
--	Kid = 2 || L2 Acc = 181871, -- Miss = 135646, rate = 0.7458, -- PendHits = 23423, rate = 0.1288-- ResFail = 0, rate = 0.0000
Error Per = 100 || Flushes = 1356 || slicingInterval = 5000
--	Kid = 3 || L2 Acc = 180840, -- Miss = 135640, rate = 0.7501, -- PendHits = 21582, rate = 0.1193-- ResFail = 0, rate = 0.0000
Error Per = 100 || Flushes = 1356 || slicingInterval = 5000
--	Kid = 4 || L2 Acc = 181619, -- Miss = 135675, rate = 0.7470, -- PendHits = 22328, rate = 0.1229-- ResFail = 0, rate = 0.0000
Error Per = 100 || Flushes = 1356 || slicingInterval = 5000
--	Kid = 5 || L2 Acc = 181631, -- Miss = 135727, rate = 0.7473, -- PendHits = 22717, rate = 0.1251-- ResFail = 0, rate = 0.0000
Error Per = 100 || Flushes = 1357 || slicingInterval = 5000
--	Kid = 6 || L2 Acc = 182168, -- Miss = 135710, rate = 0.7450, -- PendHits = 22839, rate = 0.1254-- ResFail = 0, rate = 0.0000
Error Per = 100 || Flushes = 1357 || slicingInterval = 5000
--	Kid = 7 || L2 Acc = 182108, -- Miss = 135673, rate = 0.7450, -- PendHits = 23460, rate = 0.1288-- ResFail = 0, rate = 0.0000
Error Per = 100 || Flushes = 1356 || slicingInterval = 5000
--	Kid = 8 || L2 Acc = 181936, -- Miss = 135691, rate = 0.7458, -- PendHits = 22889, rate = 0.1258-- ResFail = 0, rate = 0.0000
Error Per = 100 || Flushes = 1356 || slicingInterval = 5000
--	Kid = 9 || L2 Acc = 177333, -- Miss = 133092, rate = 0.7505, -- PendHits = 22143, rate = 0.1249-- ResFail = 0, rate = 0.0000
Error Per = 100 || Flushes = 1330 || slicingInterval = 5000
--------------------------------------------------------------
L2 access stats (for 15'th subPartition) 
--	Kid = 0 || L2 Acc = 182050, -- Miss = 135695, rate = 0.7454, -- PendHits = 23790, rate = 0.1307-- ResFail = 0, rate = 0.0000
Error Per = 100 || Flushes = 1356 || slicingInterval = 5000
--	Kid = 1 || L2 Acc = 181920, -- Miss = 135664, rate = 0.7457, -- PendHits = 23194, rate = 0.1275-- ResFail = 0, rate = 0.0000
Error Per = 100 || Flushes = 1356 || slicingInterval = 5000
--	Kid = 2 || L2 Acc = 182163, -- Miss = 135651, rate = 0.7447, -- PendHits = 23652, rate = 0.1298-- ResFail = 0, rate = 0.0000
Error Per = 100 || Flushes = 1356 || slicingInterval = 5000
--	Kid = 3 || L2 Acc = 181098, -- Miss = 135683, rate = 0.7492, -- PendHits = 21587, rate = 0.1192-- ResFail = 0, rate = 0.0000
Error Per = 100 || Flushes = 1356 || slicingInterval = 5000
--	Kid = 4 || L2 Acc = 181315, -- Miss = 135676, rate = 0.7483, -- PendHits = 22216, rate = 0.1225-- ResFail = 0, rate = 0.0000
Error Per = 100 || Flushes = 1356 || slicingInterval = 5000
--	Kid = 5 || L2 Acc = 181817, -- Miss = 135702, rate = 0.7464, -- PendHits = 22785, rate = 0.1253-- ResFail = 0, rate = 0.0000
Error Per = 100 || Flushes = 1357 || slicingInterval = 5000
--	Kid = 6 || L2 Acc = 182499, -- Miss = 135707, rate = 0.7436, -- PendHits = 22977, rate = 0.1259-- ResFail = 0, rate = 0.0000
Error Per = 100 || Flushes = 1357 || slicingInterval = 5000
--	Kid = 7 || L2 Acc = 181704, -- Miss = 135691, rate = 0.7468, -- PendHits = 23356, rate = 0.1285-- ResFail = 0, rate = 0.0000
Error Per = 100 || Flushes = 1356 || slicingInterval = 5000
--	Kid = 8 || L2 Acc = 182223, -- Miss = 135719, rate = 0.7448, -- PendHits = 23068, rate = 0.1266-- ResFail = 0, rate = 0.0000
Error Per = 100 || Flushes = 1357 || slicingInterval = 5000
--	Kid = 9 || L2 Acc = 177324, -- Miss = 133081, rate = 0.7505, -- PendHits = 22109, rate = 0.1247-- ResFail = 0, rate = 0.0000
Error Per = 100 || Flushes = 1330 || slicingInterval = 5000
--------------------------------------------------------------
L2 access stats (for 16'th subPartition) 
--	Kid = 0 || L2 Acc = 181521, -- Miss = 135686, rate = 0.7475, -- PendHits = 23541, rate = 0.1297-- ResFail = 0, rate = 0.0000
Error Per = 100 || Flushes = 1356 || slicingInterval = 5000
--	Kid = 1 || L2 Acc = 182227, -- Miss = 135678, rate = 0.7446, -- PendHits = 23233, rate = 0.1275-- ResFail = 0, rate = 0.0000
Error Per = 100 || Flushes = 1356 || slicingInterval = 5000
--	Kid = 2 || L2 Acc = 182281, -- Miss = 135687, rate = 0.7444, -- PendHits = 23799, rate = 0.1306-- ResFail = 0, rate = 0.0000
Error Per = 100 || Flushes = 1356 || slicingInterval = 5000
--	Kid = 3 || L2 Acc = 180827, -- Miss = 135663, rate = 0.7502, -- PendHits = 21489, rate = 0.1188-- ResFail = 0, rate = 0.0000
Error Per = 100 || Flushes = 1356 || slicingInterval = 5000
--	Kid = 4 || L2 Acc = 181374, -- Miss = 135662, rate = 0.7480, -- PendHits = 22363, rate = 0.1233-- ResFail = 0, rate = 0.0000
Error Per = 100 || Flushes = 1356 || slicingInterval = 5000
--	Kid = 5 || L2 Acc = 182120, -- Miss = 135701, rate = 0.7451, -- PendHits = 22743, rate = 0.1249-- ResFail = 0, rate = 0.0000
Error Per = 100 || Flushes = 1357 || slicingInterval = 5000
--	Kid = 6 || L2 Acc = 181983, -- Miss = 135721, rate = 0.7458, -- PendHits = 22748, rate = 0.1250-- ResFail = 0, rate = 0.0000
Error Per = 100 || Flushes = 1357 || slicingInterval = 5000
--	Kid = 7 || L2 Acc = 181997, -- Miss = 135692, rate = 0.7456, -- PendHits = 23432, rate = 0.1287-- ResFail = 0, rate = 0.0000
Error Per = 100 || Flushes = 1356 || slicingInterval = 5000
--	Kid = 8 || L2 Acc = 182347, -- Miss = 135685, rate = 0.7441, -- PendHits = 23166, rate = 0.1270-- ResFail = 0, rate = 0.0000
Error Per = 100 || Flushes = 1356 || slicingInterval = 5000
--	Kid = 9 || L2 Acc = 177311, -- Miss = 133074, rate = 0.7505, -- PendHits = 22175, rate = 0.1251-- ResFail = 0, rate = 0.0000
Error Per = 100 || Flushes = 1330 || slicingInterval = 5000
--------------------------------------------------------------
L2 access stats (for 17'th subPartition) 
--	Kid = 0 || L2 Acc = 181642, -- Miss = 135716, rate = 0.7472, -- PendHits = 23601, rate = 0.1299-- ResFail = 0, rate = 0.0000
Error Per = 100 || Flushes = 1357 || slicingInterval = 5000
--	Kid = 1 || L2 Acc = 182364, -- Miss = 135669, rate = 0.7439, -- PendHits = 23404, rate = 0.1283-- ResFail = 0, rate = 0.0000
Error Per = 100 || Flushes = 1356 || slicingInterval = 5000
--	Kid = 2 || L2 Acc = 181839, -- Miss = 135664, rate = 0.7461, -- PendHits = 23598, rate = 0.1298-- ResFail = 0, rate = 0.0000
Error Per = 100 || Flushes = 1356 || slicingInterval = 5000
--	Kid = 3 || L2 Acc = 180956, -- Miss = 135659, rate = 0.7497, -- PendHits = 21601, rate = 0.1194-- ResFail = 0, rate = 0.0000
Error Per = 100 || Flushes = 1356 || slicingInterval = 5000
--	Kid = 4 || L2 Acc = 181595, -- Miss = 135680, rate = 0.7472, -- PendHits = 22485, rate = 0.1238-- ResFail = 0, rate = 0.0000
Error Per = 100 || Flushes = 1356 || slicingInterval = 5000
--	Kid = 5 || L2 Acc = 181595, -- Miss = 135720, rate = 0.7474, -- PendHits = 22467, rate = 0.1237-- ResFail = 0, rate = 0.0000
Error Per = 100 || Flushes = 1357 || slicingInterval = 5000
--	Kid = 6 || L2 Acc = 182168, -- Miss = 135680, rate = 0.7448, -- PendHits = 22918, rate = 0.1258-- ResFail = 0, rate = 0.0000
Error Per = 100 || Flushes = 1356 || slicingInterval = 5000
--	Kid = 7 || L2 Acc = 182127, -- Miss = 135663, rate = 0.7449, -- PendHits = 23586, rate = 0.1295-- ResFail = 0, rate = 0.0000
Error Per = 100 || Flushes = 1356 || slicingInterval = 5000
--	Kid = 8 || L2 Acc = 181927, -- Miss = 135690, rate = 0.7458, -- PendHits = 23097, rate = 0.1270-- ResFail = 0, rate = 0.0000
Error Per = 100 || Flushes = 1356 || slicingInterval = 5000
--	Kid = 9 || L2 Acc = 177312, -- Miss = 133112, rate = 0.7507, -- PendHits = 22195, rate = 0.1252-- ResFail = 0, rate = 0.0000
Error Per = 100 || Flushes = 1331 || slicingInterval = 5000
--------------------------------------------------------------
L2 access stats (for 18'th subPartition) 
--	Kid = 0 || L2 Acc = 181967, -- Miss = 135690, rate = 0.7457, -- PendHits = 23730, rate = 0.1304-- ResFail = 0, rate = 0.0000
Error Per = 100 || Flushes = 1356 || slicingInterval = 5000
--	Kid = 1 || L2 Acc = 181932, -- Miss = 135651, rate = 0.7456, -- PendHits = 23239, rate = 0.1277-- ResFail = 0, rate = 0.0000
Error Per = 100 || Flushes = 1356 || slicingInterval = 5000
--	Kid = 2 || L2 Acc = 182134, -- Miss = 135679, rate = 0.7449, -- PendHits = 23589, rate = 0.1295-- ResFail = 0, rate = 0.0000
Error Per = 100 || Flushes = 1356 || slicingInterval = 5000
--	Kid = 3 || L2 Acc = 181181, -- Miss = 135705, rate = 0.7490, -- PendHits = 21469, rate = 0.1185-- ResFail = 0, rate = 0.0000
Error Per = 100 || Flushes = 1357 || slicingInterval = 5000
--	Kid = 4 || L2 Acc = 181252, -- Miss = 135683, rate = 0.7486, -- PendHits = 22324, rate = 0.1232-- ResFail = 0, rate = 0.0000
Error Per = 100 || Flushes = 1356 || slicingInterval = 5000
--	Kid = 5 || L2 Acc = 181791, -- Miss = 135692, rate = 0.7464, -- PendHits = 22645, rate = 0.1246-- ResFail = 0, rate = 0.0000
Error Per = 100 || Flushes = 1356 || slicingInterval = 5000
--	Kid = 6 || L2 Acc = 182478, -- Miss = 135674, rate = 0.7435, -- PendHits = 22926, rate = 0.1256-- ResFail = 0, rate = 0.0000
Error Per = 100 || Flushes = 1356 || slicingInterval = 5000
--	Kid = 7 || L2 Acc = 181715, -- Miss = 135692, rate = 0.7467, -- PendHits = 23400, rate = 0.1288-- ResFail = 0, rate = 0.0000
Error Per = 100 || Flushes = 1356 || slicingInterval = 5000
--	Kid = 8 || L2 Acc = 182216, -- Miss = 135712, rate = 0.7448, -- PendHits = 23152, rate = 0.1271-- ResFail = 0, rate = 0.0000
Error Per = 100 || Flushes = 1357 || slicingInterval = 5000
--	Kid = 9 || L2 Acc = 177330, -- Miss = 133115, rate = 0.7507, -- PendHits = 22372, rate = 0.1262-- ResFail = 0, rate = 0.0000
Error Per = 100 || Flushes = 1331 || slicingInterval = 5000
--------------------------------------------------------------
L2 access stats (for 19'th subPartition) 
--	Kid = 0 || L2 Acc = 181461, -- Miss = 135678, rate = 0.7477, -- PendHits = 23714, rate = 0.1307-- ResFail = 0, rate = 0.0000
Error Per = 100 || Flushes = 1356 || slicingInterval = 5000
--	Kid = 1 || L2 Acc = 182203, -- Miss = 135699, rate = 0.7448, -- PendHits = 23077, rate = 0.1267-- ResFail = 0, rate = 0.0000
Error Per = 100 || Flushes = 1356 || slicingInterval = 5000
--	Kid = 2 || L2 Acc = 182282, -- Miss = 135703, rate = 0.7445, -- PendHits = 23715, rate = 0.1301-- ResFail = 0, rate = 0.0000
Error Per = 100 || Flushes = 1357 || slicingInterval = 5000
--	Kid = 3 || L2 Acc = 180835, -- Miss = 135672, rate = 0.7503, -- PendHits = 21118, rate = 0.1168-- ResFail = 0, rate = 0.0000
Error Per = 100 || Flushes = 1356 || slicingInterval = 5000
--	Kid = 4 || L2 Acc = 181346, -- Miss = 135666, rate = 0.7481, -- PendHits = 22427, rate = 0.1237-- ResFail = 0, rate = 0.0000
Error Per = 100 || Flushes = 1356 || slicingInterval = 5000
--	Kid = 5 || L2 Acc = 182159, -- Miss = 135692, rate = 0.7449, -- PendHits = 22884, rate = 0.1256-- ResFail = 0, rate = 0.0000
Error Per = 100 || Flushes = 1356 || slicingInterval = 5000
--	Kid = 6 || L2 Acc = 181943, -- Miss = 135719, rate = 0.7459, -- PendHits = 22847, rate = 0.1256-- ResFail = 0, rate = 0.0000
Error Per = 100 || Flushes = 1357 || slicingInterval = 5000
--	Kid = 7 || L2 Acc = 182014, -- Miss = 135697, rate = 0.7455, -- PendHits = 23608, rate = 0.1297-- ResFail = 0, rate = 0.0000
Error Per = 100 || Flushes = 1356 || slicingInterval = 5000
--	Kid = 8 || L2 Acc = 182344, -- Miss = 135691, rate = 0.7441, -- PendHits = 23349, rate = 0.1280-- ResFail = 0, rate = 0.0000
Error Per = 100 || Flushes = 1356 || slicingInterval = 5000
--	Kid = 9 || L2 Acc = 177292, -- Miss = 133091, rate = 0.7507, -- PendHits = 22358, rate = 0.1261-- ResFail = 0, rate = 0.0000
Error Per = 100 || Flushes = 1330 || slicingInterval = 5000
--------------------------------------------------------------
L2 access stats (for 20'th subPartition) 
--	Kid = 0 || L2 Acc = 181718, -- Miss = 135710, rate = 0.7468, -- PendHits = 23766, rate = 0.1308-- ResFail = 0, rate = 0.0000
Error Per = 100 || Flushes = 1357 || slicingInterval = 5000
--	Kid = 1 || L2 Acc = 182331, -- Miss = 135714, rate = 0.7443, -- PendHits = 23129, rate = 0.1269-- ResFail = 0, rate = 0.0000
Error Per = 100 || Flushes = 1357 || slicingInterval = 5000
--	Kid = 2 || L2 Acc = 181861, -- Miss = 135678, rate = 0.7461, -- PendHits = 23395, rate = 0.1286-- ResFail = 0, rate = 0.0000
Error Per = 100 || Flushes = 1356 || slicingInterval = 5000
--	Kid = 3 || L2 Acc = 180893, -- Miss = 135656, rate = 0.7499, -- PendHits = 21200, rate = 0.1172-- ResFail = 0, rate = 0.0000
Error Per = 100 || Flushes = 1356 || slicingInterval = 5000
--	Kid = 4 || L2 Acc = 181557, -- Miss = 135676, rate = 0.7473, -- PendHits = 22535, rate = 0.1241-- ResFail = 0, rate = 0.0000
Error Per = 100 || Flushes = 1356 || slicingInterval = 5000
--	Kid = 5 || L2 Acc = 181681, -- Miss = 135705, rate = 0.7469, -- PendHits = 22877, rate = 0.1259-- ResFail = 0, rate = 0.0000
Error Per = 100 || Flushes = 1357 || slicingInterval = 5000
--	Kid = 6 || L2 Acc = 182118, -- Miss = 135696, rate = 0.7451, -- PendHits = 22982, rate = 0.1262-- ResFail = 0, rate = 0.0000
Error Per = 100 || Flushes = 1356 || slicingInterval = 5000
--	Kid = 7 || L2 Acc = 182186, -- Miss = 135680, rate = 0.7447, -- PendHits = 23592, rate = 0.1295-- ResFail = 0, rate = 0.0000
Error Per = 100 || Flushes = 1356 || slicingInterval = 5000
--	Kid = 8 || L2 Acc = 181907, -- Miss = 135695, rate = 0.7460, -- PendHits = 23070, rate = 0.1268-- ResFail = 0, rate = 0.0000
Error Per = 100 || Flushes = 1356 || slicingInterval = 5000
--	Kid = 9 || L2 Acc = 177297, -- Miss = 133097, rate = 0.7507, -- PendHits = 22373, rate = 0.1262-- ResFail = 0, rate = 0.0000
Error Per = 100 || Flushes = 1330 || slicingInterval = 5000
--------------------------------------------------------------
L2 access stats (for 21'th subPartition) 
--	Kid = 0 || L2 Acc = 182059, -- Miss = 135675, rate = 0.7452, -- PendHits = 23979, rate = 0.1317-- ResFail = 0, rate = 0.0000
Error Per = 100 || Flushes = 1356 || slicingInterval = 5000
--	Kid = 1 || L2 Acc = 181920, -- Miss = 135691, rate = 0.7459, -- PendHits = 22756, rate = 0.1251-- ResFail = 0, rate = 0.0000
Error Per = 100 || Flushes = 1356 || slicingInterval = 5000
--	Kid = 2 || L2 Acc = 182168, -- Miss = 135679, rate = 0.7448, -- PendHits = 23502, rate = 0.1290-- ResFail = 0, rate = 0.0000
Error Per = 100 || Flushes = 1356 || slicingInterval = 5000
--	Kid = 3 || L2 Acc = 181118, -- Miss = 135695, rate = 0.7492, -- PendHits = 21344, rate = 0.1178-- ResFail = 0, rate = 0.0000
Error Per = 100 || Flushes = 1356 || slicingInterval = 5000
--	Kid = 4 || L2 Acc = 181249, -- Miss = 135656, rate = 0.7485, -- PendHits = 22290, rate = 0.1230-- ResFail = 0, rate = 0.0000
Error Per = 100 || Flushes = 1356 || slicingInterval = 5000
--	Kid = 5 || L2 Acc = 181865, -- Miss = 135675, rate = 0.7460, -- PendHits = 23149, rate = 0.1273-- ResFail = 0, rate = 0.0000
Error Per = 100 || Flushes = 1356 || slicingInterval = 5000
--	Kid = 6 || L2 Acc = 182453, -- Miss = 135693, rate = 0.7437, -- PendHits = 23380, rate = 0.1281-- ResFail = 0, rate = 0.0000
Error Per = 100 || Flushes = 1356 || slicingInterval = 5000
--	Kid = 7 || L2 Acc = 181782, -- Miss = 135709, rate = 0.7465, -- PendHits = 23447, rate = 0.1290-- ResFail = 0, rate = 0.0000
Error Per = 100 || Flushes = 1357 || slicingInterval = 5000
--	Kid = 8 || L2 Acc = 182176, -- Miss = 135720, rate = 0.7450, -- PendHits = 23069, rate = 0.1266-- ResFail = 0, rate = 0.0000
Error Per = 100 || Flushes = 1357 || slicingInterval = 5000
--	Kid = 9 || L2 Acc = 177280, -- Miss = 133121, rate = 0.7509, -- PendHits = 22361, rate = 0.1261-- ResFail = 0, rate = 0.0000
Error Per = 100 || Flushes = 1331 || slicingInterval = 5000
--------------------------------------------------------------
L2 access stats (for 22'th subPartition) 
--	Kid = 0 || L2 Acc = 181535, -- Miss = 135671, rate = 0.7474, -- PendHits = 23802, rate = 0.1311-- ResFail = 0, rate = 0.0000
Error Per = 100 || Flushes = 1356 || slicingInterval = 5000
--	Kid = 1 || L2 Acc = 182193, -- Miss = 135702, rate = 0.7448, -- PendHits = 22792, rate = 0.1251-- ResFail = 0, rate = 0.0000
Error Per = 100 || Flushes = 1357 || slicingInterval = 5000
--	Kid = 2 || L2 Acc = 182306, -- Miss = 135702, rate = 0.7444, -- PendHits = 23435, rate = 0.1285-- ResFail = 0, rate = 0.0000
Error Per = 100 || Flushes = 1357 || slicingInterval = 5000
--	Kid = 3 || L2 Acc = 180801, -- Miss = 135665, rate = 0.7504, -- PendHits = 21197, rate = 0.1172-- ResFail = 0, rate = 0.0000
Error Per = 100 || Flushes = 1356 || slicingInterval = 5000
--	Kid = 4 || L2 Acc = 181329, -- Miss = 135655, rate = 0.7481, -- PendHits = 22303, rate = 0.1230-- ResFail = 0, rate = 0.0000
Error Per = 100 || Flushes = 1356 || slicingInterval = 5000
--	Kid = 5 || L2 Acc = 182153, -- Miss = 135694, rate = 0.7449, -- PendHits = 23207, rate = 0.1274-- ResFail = 0, rate = 0.0000
Error Per = 100 || Flushes = 1356 || slicingInterval = 5000
--	Kid = 6 || L2 Acc = 181958, -- Miss = 135726, rate = 0.7459, -- PendHits = 23275, rate = 0.1279-- ResFail = 0, rate = 0.0000
Error Per = 100 || Flushes = 1357 || slicingInterval = 5000
--	Kid = 7 || L2 Acc = 182060, -- Miss = 135681, rate = 0.7453, -- PendHits = 23290, rate = 0.1279-- ResFail = 0, rate = 0.0000
Error Per = 100 || Flushes = 1356 || slicingInterval = 5000
--	Kid = 8 || L2 Acc = 182258, -- Miss = 135696, rate = 0.7445, -- PendHits = 23195, rate = 0.1273-- ResFail = 0, rate = 0.0000
Error Per = 100 || Flushes = 1356 || slicingInterval = 5000
--	Kid = 9 || L2 Acc = 177276, -- Miss = 133095, rate = 0.7508, -- PendHits = 22461, rate = 0.1267-- ResFail = 0, rate = 0.0000
Error Per = 100 || Flushes = 1330 || slicingInterval = 5000
--------------------------------------------------------------
L2 access stats (for 23'th subPartition) 
--	Kid = 0 || L2 Acc = 181717, -- Miss = 135716, rate = 0.7469, -- PendHits = 23900, rate = 0.1315-- ResFail = 0, rate = 0.0000
Error Per = 100 || Flushes = 1357 || slicingInterval = 5000
--	Kid = 1 || L2 Acc = 182327, -- Miss = 135685, rate = 0.7442, -- PendHits = 23026, rate = 0.1263-- ResFail = 0, rate = 0.0000
Error Per = 100 || Flushes = 1356 || slicingInterval = 5000
--	Kid = 2 || L2 Acc = 181875, -- Miss = 135675, rate = 0.7460, -- PendHits = 23164, rate = 0.1274-- ResFail = 0, rate = 0.0000
Error Per = 100 || Flushes = 1356 || slicingInterval = 5000
--	Kid = 3 || L2 Acc = 180915, -- Miss = 135654, rate = 0.7498, -- PendHits = 21369, rate = 0.1181-- ResFail = 0, rate = 0.0000
Error Per = 100 || Flushes = 1356 || slicingInterval = 5000
--	Kid = 4 || L2 Acc = 181542, -- Miss = 135694, rate = 0.7475, -- PendHits = 22463, rate = 0.1237-- ResFail = 0, rate = 0.0000
Error Per = 100 || Flushes = 1356 || slicingInterval = 5000
--	Kid = 5 || L2 Acc = 181585, -- Miss = 135723, rate = 0.7474, -- PendHits = 22846, rate = 0.1258-- ResFail = 0, rate = 0.0000
Error Per = 100 || Flushes = 1357 || slicingInterval = 5000
--	Kid = 6 || L2 Acc = 182134, -- Miss = 135700, rate = 0.7451, -- PendHits = 23294, rate = 0.1279-- ResFail = 0, rate = 0.0000
Error Per = 100 || Flushes = 1357 || slicingInterval = 5000
--	Kid = 7 || L2 Acc = 182178, -- Miss = 135652, rate = 0.7446, -- PendHits = 23520, rate = 0.1291-- ResFail = 0, rate = 0.0000
Error Per = 100 || Flushes = 1356 || slicingInterval = 5000
--	Kid = 8 || L2 Acc = 181808, -- Miss = 135694, rate = 0.7464, -- PendHits = 23111, rate = 0.1271-- ResFail = 0, rate = 0.0000
Error Per = 100 || Flushes = 1356 || slicingInterval = 5000
--	Kid = 9 || L2 Acc = 177272, -- Miss = 133084, rate = 0.7507, -- PendHits = 22448, rate = 0.1266-- ResFail = 0, rate = 0.0000
Error Per = 100 || Flushes = 1330 || slicingInterval = 5000
6a9db41cf3f8496fb5b06301bea99cf4  /home/pars/Documents/expSetups/a9/PathFinder_500000_500_50_L2_100
Extracting PTX file and ptxas options    1: PathFinder_500000_500_50_L2_100.1.sm_75.ptx -arch=sm_75
GPGPU-Sim uArch: performance model initialization complete.
Parallel calisiyor
self exe links to: /home/pars/Documents/expSetups/a9/PathFinder_500000_500_50_L2_100
self exe links to: /home/pars/Documents/expSetups/a9/PathFinder_500000_500_50_L2_100
11.0
GPGPU-Sim PTX: __cudaRegisterFatBinary, fat_cubin_handle = 1, filename=default
self exe links to: /home/pars/Documents/expSetups/a9/PathFinder_500000_500_50_L2_100
Running md5sum using "md5sum /home/pars/Documents/expSetups/a9/PathFinder_500000_500_50_L2_100 "
self exe links to: /home/pars/Documents/expSetups/a9/PathFinder_500000_500_50_L2_100
Extracting specific PTX file named PathFinder_500000_500_50_L2_100.1.sm_75.ptx 
GPGPU-Sim PTX: __cudaRegisterFunction _Z14dynproc_kerneliPiS_S_iiii : hostFun 0x0x55e68d8fbb8f, fat_cubin_handle = 1
GPGPU-Sim PTX: Parsing PathFinder_500000_500_50_L2_100.1.sm_75.ptx
GPGPU-Sim PTX: allocating shared region for "_ZZ14dynproc_kerneliPiS_S_iiiiE4prev" from 0x0 to 0x400 (shared memory space)
GPGPU-Sim PTX: allocating shared region for "_ZZ14dynproc_kerneliPiS_S_iiiiE6result" from 0x400 to 0x800 (shared memory space)
GPGPU-Sim PTX: instruction assembly for function '_Z14dynproc_kerneliPiS_S_iiii'...   done.
GPGPU-Sim PTX: finished parsing EMBEDDED .ptx file PathFinder_500000_500_50_L2_100.1.sm_75.ptx
GPGPU-Sim PTX: loading globals with explicit initializers... 
GPGPU-Sim PTX: finished loading globals (0 bytes total).
GPGPU-Sim PTX: loading constants with explicit initializers...  done.
GPGPU-Sim PTX: Loading PTXInfo from PathFinder_500000_500_50_L2_100.1.sm_75.ptx
GPGPU-Sim PTX: Kernel '_Z14dynproc_kerneliPiS_S_iiii' : regs=18, lmem=0, smem=2048, cmem=400
pyramidHeight: 50
gridSize: [500000]
border:[50]
blockSize: 256
blockGrid:[3206]
targetBlock:[156]
GPGPU-Sim PTX: Setting up arguments for 4 bytes starting at 0x7ffef590013c..
GPGPU-Sim PTX: Setting up arguments for 8 bytes starting at 0x7ffef5900130..
GPGPU-Sim PTX: Setting up arguments for 8 bytes starting at 0x7ffef5900128..
GPGPU-Sim PTX: Setting up arguments for 8 bytes starting at 0x7ffef5900120..
GPGPU-Sim PTX: Setting up arguments for 4 bytes starting at 0x7ffef5900138..
GPGPU-Sim PTX: Setting up arguments for 4 bytes starting at 0x7ffef590011c..
GPGPU-Sim PTX: Setting up arguments for 4 bytes starting at 0x7ffef59001d0..
GPGPU-Sim PTX: Setting up arguments for 4 bytes starting at 0x7ffef59001d8..

GPGPU-Sim PTX: cudaLaunch for 0x0x55e68d8fbb8f (mode=performance simulation) on stream 0
GPGPU-Sim PTX: finding reconvergence points for '_Z14dynproc_kerneliPiS_S_iiii'...
GPGPU-Sim PTX: Finding dominators for '_Z14dynproc_kerneliPiS_S_iiii'...
GPGPU-Sim PTX: Finding immediate dominators for '_Z14dynproc_kerneliPiS_S_iiii'...
GPGPU-Sim PTX: Finding postdominators for '_Z14dynproc_kerneliPiS_S_iiii'...
GPGPU-Sim PTX: Finding immediate postdominators for '_Z14dynproc_kerneliPiS_S_iiii'...
GPGPU-Sim PTX: pre-decoding instructions for '_Z14dynproc_kerneliPiS_S_iiii'...
GPGPU-Sim PTX: reconvergence points for _Z14dynproc_kerneliPiS_S_iiii...
GPGPU-Sim PTX:  1 (potential) branch divergence @  PC=0x0a8 (PathFinder_500000_500_50_L2_100.1.sm_75.ptx:58) @%p4 bra $L__BB0_2;
[...]
Bank_Level_Parallism = 2.286572
Bank_Level_Parallism_Col = 2.198666
Bank_Level_Parallism_Ready = 1.248796
write_to_read_ratio_blp_rw_average = 0.000000
GrpLevelPara = 0.000000 

BW Util details:
bwutil = 0.448615 
total_CMD = 24135928 
util_bw = 10827732 
Wasted_Col = 6109380 
Wasted_Row = 2477254 
Idle = 4721562 

BW Util Bottlenecks: 
RCDc_limit = 6067377 
RCDWRc_limit = 47362 
WTRc_limit = 276429 
RTWc_limit = 326861 
CCDLc_limit = 2049330 
rwq = 0 
CCDLc_limit_alone = 2011618 
WTRc_limit_alone = 264273 
RTWc_limit_alone = 301305 

Commands details: 
total_CMD = 24135928 
n_nop = 20540693 
Read = 2655148 
Write = 0 
L2_Alloc = 0 
L2_WB = 51785 
n_act = 452842 
n_pre = 452826 
n_ref = 3255307777713450285 
n_req = 2668095 
total_req = 2706933 

Dual Bus Interface Util: 
issued_total_row = 905668 
issued_total_col = 2706933 
Row_Bus_Util =  0.037524 
CoL_Bus_Util = 0.112154 
Either_Row_CoL_Bus_Util = 0.148958 
Issued_on_Two_Bus_Simul_Util = 0.000720 
issued_two_Eff = 0.004830 
queue_avg = 4.509768 


dram_util_bins: 0 0 0 0 0 0 0 0 0 0
dram_eff_bins: 0 0 0 0 0 0 0 0 0 0
mrqq: max=64 avg=4.50977
Memory Partition 7: 
Cache L2_bank_014:
MSHR contents

Cache L2_bank_015:
MSHR contents

In Dram Latency Queue (total = 0): 
DRAM[7]: 16 bks, busW=2 BL=16 CL=24, tRRD=12 tCCD=4, tRCD=24 tRAS=55 tRP=24 tRC=78
n_cmd=24135928 n_nop=20540346 n_act=453212 n_pre=453196 n_ref_event=3255307777713450285 n_req=2668005 n_rd=2655058 n_rd_L2_A=0 n_write=0 n_wr_bk=51785 bw_util=0.4486
n_activity=21419555 dram_eff=0.5055
bk0: 166248a 21551961i bk1: 166252a 21565878i bk2: 165991a 21568224i bk3: 166018a 21580330i bk4: 165919a 21571356i bk5: 165901a 21587646i bk6: 165827a 21558081i bk7: 165815a 21581581i bk8: 165866a 21558402i bk9: 165883a 21570765i bk10: 165882a 21546081i bk11: 165894a 21561299i bk12: 165922a 21553476i bk13: 165863a 21567038i bk14: 165882a 21566279i bk15: 165895a 21583944i 

------------------------------------------------------------------------

Row_Buffer_Locality = 0.830132
Row_Buffer_Locality_read = 0.832204
Row_Buffer_Locality_write = 0.405345
Bank_Level_Parallism = 2.288550
Bank_Level_Parallism_Col = 2.198666
Bank_Level_Parallism_Ready = 1.246501
write_to_read_ratio_blp_rw_average = 0.000000
GrpLevelPara = 0.000000 

BW Util details:
bwutil = 0.448600 
total_CMD = 24135928 
util_bw = 10827372 
Wasted_Col = 6105102 
Wasted_Row = 2474482 
Idle = 4728972 

BW Util Bottlenecks: 
RCDc_limit = 6059293 
RCDWRc_limit = 47512 
WTRc_limit = 275011 
RTWc_limit = 333130 
CCDLc_limit = 2050274 
rwq = 0 
CCDLc_limit_alone = 2012606 
WTRc_limit_alone = 262793 
RTWc_limit_alone = 307680 

Commands details: 
total_CMD = 24135928 
n_nop = 20540346 
Read = 2655058 
Write = 0 
L2_Alloc = 0 
L2_WB = 51785 
n_act = 453212 
n_pre = 453196 
n_ref = 3255307777713450285 
n_req = 2668005 
total_req = 2706843 

Dual Bus Interface Util: 
issued_total_row = 906408 
issued_total_col = 2706843 
Row_Bus_Util =  0.037554 
CoL_Bus_Util = 0.112150 
Either_Row_CoL_Bus_Util = 0.148972 
Issued_on_Two_Bus_Simul_Util = 0.000732 
issued_two_Eff = 0.004914 
queue_avg = 4.520572 


dram_util_bins: 0 0 0 0 0 0 0 0 0 0
dram_eff_bins: 0 0 0 0 0 0 0 0 0 0
mrqq: max=64 avg=4.52057
Memory Partition 8: 
Cache L2_bank_016:
MSHR contents

Cache L2_bank_017:
MSHR contents

In Dram Latency Queue (total = 0): 
DRAM[8]: 16 bks, busW=2 BL=16 CL=24, tRRD=12 tCCD=4, tRCD=24 tRAS=55 tRP=24 tRC=78
n_cmd=24135928 n_nop=20540204 n_act=453437 n_pre=453421 n_ref_event=3255307777713450285 n_req=2667935 n_rd=2654988 n_rd_L2_A=0 n_write=0 n_wr_bk=51779 bw_util=0.4486
n_activity=21424675 dram_eff=0.5054
bk0: 166242a 21549010i bk1: 166256a 21563925i bk2: 165980a 21565132i bk3: 165979a 21581777i bk4: 165886a 21562851i bk5: 165920a 21593464i bk6: 165853a 21559686i bk7: 165872a 21575928i bk8: 165880a 21561255i bk9: 165893a 21577419i bk10: 165888a 21558661i bk11: 165857a 21574685i bk12: 165850a 21550601i bk13: 165878a 21570934i bk14: 165877a 21559940i bk15: 165877a 21572231i 

------------------------------------------------------------------------

Row_Buffer_Locality = 0.830043
Row_Buffer_Locality_read = 0.832117
Row_Buffer_Locality_write = 0.404804
Bank_Level_Parallism = 2.287509
Bank_Level_Parallism_Col = 2.198666
Bank_Level_Parallism_Ready = 1.246998
write_to_read_ratio_blp_rw_average = 0.000000
GrpLevelPara = 0.000000 

BW Util details:
bwutil = 0.448587 
total_CMD = 24135928 
util_bw = 10827068 
Wasted_Col = 6109805 
Wasted_Row = 2477185 
Idle = 4721870 

BW Util Bottlenecks: 
RCDc_limit = 6069810 
RCDWRc_limit = 47828 
WTRc_limit = 273583 
RTWc_limit = 329546 
CCDLc_limit = 2054289 
rwq = 0 
CCDLc_limit_alone = 2016704 
WTRc_limit_alone = 261341 
RTWc_limit_alone = 304203 

Commands details: 
total_CMD = 24135928 
n_nop = 20540204 
Read = 2654988 
Write = 0 
L2_Alloc = 0 
L2_WB = 51779 
n_act = 453437 
n_pre = 453421 
n_ref = 3255307777713450285 
n_req = 2667935 
total_req = 2706767 

Dual Bus Interface Util: 
issued_total_row = 906858 
issued_total_col = 2706767 
Row_Bus_Util =  0.037573 
CoL_Bus_Util = 0.112147 
Either_Row_CoL_Bus_Util = 0.148978 
Issued_on_Two_Bus_Simul_Util = 0.000742 
issued_two_Eff = 0.004978 
queue_avg = 4.514473 


dram_util_bins: 0 0 0 0 0 0 0 0 0 0
dram_eff_bins: 0 0 0 0 0 0 0 0 0 0
mrqq: max=64 avg=4.51447
Memory Partition 9: 
Cache L2_bank_018:
MSHR contents

Cache L2_bank_019:
MSHR contents

In Dram Latency Queue (total = 0): 
DRAM[9]: 16 bks, busW=2 BL=16 CL=24, tRRD=12 tCCD=4, tRCD=24 tRAS=55 tRP=24 tRC=78
n_cmd=24135928 n_nop=20539684 n_act=453461 n_pre=453445 n_ref_event=3255307777713450285 n_req=2668075 n_rd=2655129 n_rd_L2_A=0 n_write=0 n_wr_bk=51778 bw_util=0.4486
n_activity=21425548 dram_eff=0.5054
bk0: 166260a 21544920i bk1: 166257a 21554975i bk2: 165948a 21561277i bk3: 165984a 21571404i bk4: 165928a 21565013i bk5: 165904a 21585825i bk6: 165861a 21565242i bk7: 165876a 21578144i bk8: 165905a 21562800i bk9: 165901a 21575691i bk10: 165832a 21565637i bk11: 165846a 21577297i bk12: 165891a 21551712i bk13: 165864a 21577469i bk14: 165932a 21561991i bk15: 165940a 21577325i 

------------------------------------------------------------------------

Row_Buffer_Locality = 0.830043
Row_Buffer_Locality_read = 0.832111
Row_Buffer_Locality_write = 0.405917
Bank_Level_Parallism = 2.287405
Bank_Level_Parallism_Col = 2.198666
Bank_Level_Parallism_Ready = 1.247654
write_to_read_ratio_blp_rw_average = 0.000000
GrpLevelPara = 0.000000 

BW Util details:
bwutil = 0.448610 
total_CMD = 24135928 
util_bw = 10827628 
Wasted_Col = 6111134 
Wasted_Row = 2474644 
Idle = 4722522 

BW Util Bottlenecks: 
RCDc_limit = 6067740 
RCDWRc_limit = 47330 
WTRc_limit = 279736 
RTWc_limit = 327896 
CCDLc_limit = 2053609 
rwq = 0 
CCDLc_limit_alone = 2016529 
WTRc_limit_alone = 267174 
RTWc_limit_alone = 303378 

Commands details: 
total_CMD = 24135928 
n_nop = 20539684 
Read = 2655129 
Write = 0 
L2_Alloc = 0 
L2_WB = 51778 
n_act = 453461 
n_pre = 453445 
n_ref = 3255307777713450285 
n_req = 2668075 
total_req = 2706907 

Dual Bus Interface Util: 
issued_total_row = 906906 
issued_total_col = 2706907 
Row_Bus_Util =  0.037575 
CoL_Bus_Util = 0.112153 
Either_Row_CoL_Bus_Util = 0.149000 
Issued_on_Two_Bus_Simul_Util = 0.000728 
issued_two_Eff = 0.004885 
queue_avg = 4.505910 


dram_util_bins: 0 0 0 0 0 0 0 0 0 0
dram_eff_bins: 0 0 0 0 0 0 0 0 0 0
mrqq: max=64 avg=4.50591
Memory Partition 10: 
Cache L2_bank_020:
MSHR contents

Cache L2_bank_021:
MSHR contents

In Dram Latency Queue (total = 0): 
DRAM[10]: 16 bks, busW=2 BL=16 CL=24, tRRD=12 tCCD=4, tRCD=24 tRAS=55 tRP=24 tRC=78
n_cmd=24135928 n_nop=20541719 n_act=452324 n_pre=452308 n_ref_event=3255307777713450285 n_req=2668164 n_rd=2655220 n_rd_L2_A=0 n_write=0 n_wr_bk=51773 bw_util=0.4486
n_activity=21408950 dram_eff=0.5058
bk0: 166239a 21543548i bk1: 166247a 21564827i bk2: 166003a 21573364i bk3: 166040a 21586555i bk4: 165895a 21561932i bk5: 165912a 21570157i bk6: 165914a 21576762i bk7: 165888a 21593818i bk8: 165907a 21565550i bk9: 165875a 21581096i bk10: 165864a 21558163i bk11: 165855a 21584956i bk12: 165880a 21563478i bk13: 165886a 21572067i bk14: 165905a 21560967i bk15: 165910a 21587735i 

------------------------------------------------------------------------

Row_Buffer_Locality = 0.830475
Row_Buffer_Locality_read = 0.832542
Row_Buffer_Locality_write = 0.406520
Bank_Level_Parallism = 2.286314
Bank_Level_Parallism_Col = 2.198666
Bank_Level_Parallism_Ready = 1.248015
write_to_read_ratio_blp_rw_average = 0.000000
GrpLevelPara = 0.000000 

BW Util details:
bwutil = 0.448625 
total_CMD = 24135928 
util_bw = 10827972 
Wasted_Col = 6097706 
Wasted_Row = 2470435 
Idle = 4739815 

BW Util Bottlenecks: 
RCDc_limit = 6041997 
RCDWRc_limit = 47473 
WTRc_limit = 277135 
RTWc_limit = 324566 
CCDLc_limit = 2054349 
rwq = 0 
CCDLc_limit_alone = 2018084 
WTRc_limit_alone = 265009 
RTWc_limit_alone = 300427 

Commands details: 
total_CMD = 24135928 
n_nop = 20541719 
Read = 2655220 
Write = 0 
L2_Alloc = 0 
L2_WB = 51773 
n_act = 452324 
n_pre = 452308 
n_ref = 3255307777713450285 
n_req = 2668164 
total_req = 2706993 

Dual Bus Interface Util: 
issued_total_row = 904632 
issued_total_col = 2706993 
Row_Bus_Util =  0.037481 
CoL_Bus_Util = 0.112156 
Either_Row_CoL_Bus_Util = 0.148915 
Issued_on_Two_Bus_Simul_Util = 0.000722 
issued_two_Eff = 0.004846 
queue_avg = 4.509300 


dram_util_bins: 0 0 0 0 0 0 0 0 0 0
dram_eff_bins: 0 0 0 0 0 0 0 0 0 0
mrqq: max=64 avg=4.5093
Memory Partition 11: 
Cache L2_bank_022:
MSHR contents

Cache L2_bank_023:
MSHR contents

In Dram Latency Queue (total = 0): 
DRAM[11]: 16 bks, busW=2 BL=16 CL=24, tRRD=12 tCCD=4, tRCD=24 tRAS=55 tRP=24 tRC=78
n_cmd=24135928 n_nop=20540766 n_act=452951 n_pre=452935 n_ref_event=7310313499448795487 n_req=2668106 n_rd=2655165 n_rd_L2_A=0 n_write=0 n_wr_bk=51761 bw_util=0.4486
n_activity=21422366 dram_eff=0.5054
bk0: 166252a 21547483i bk1: 166284a 21564834i bk2: 166034a 21571677i bk3: 166035a 21576172i bk4: 165927a 21550092i bk5: 165902a 21568949i bk6: 165842a 21567406i bk7: 165844a 21587005i bk8: 165884a 21563947i bk9: 165869a 21574708i bk10: 165857a 21559349i bk11: 165863a 21584379i bk12: 165928a 21561874i bk13: 165923a 21582984i bk14: 165860a 21569888i bk15: 165861a 21589012i 

------------------------------------------------------------------------

Row_Buffer_Locality = 0.830236
Row_Buffer_Locality_read = 0.832279
Row_Buffer_Locality_write = 0.411251
Bank_Level_Parallism = 2.285348
Bank_Level_Parallism_Col = 0.817483
Bank_Level_Parallism_Ready = 1.247652
write_to_read_ratio_blp_rw_average = 0.000000
GrpLevelPara = 0.000000 

BW Util details:
bwutil = 0.448614 
total_CMD = 24135928 
util_bw = 10827704 
Wasted_Col = 6107137 
Wasted_Row = 2477351 
Idle = 4723736 

BW Util Bottlenecks: 
RCDc_limit = 6061864 
RCDWRc_limit = 47338 
WTRc_limit = 277119 
RTWc_limit = 324740 
CCDLc_limit = 2052350 
rwq = 0 
CCDLc_limit_alone = 2015666 
WTRc_limit_alone = 264749 
RTWc_limit_alone = 300426 

Commands details: 
total_CMD = 24135928 
n_nop = 20540766 
Read = 2655165 
Write = 0 
L2_Alloc = 0 
L2_WB = 51761 
n_act = 452951 
n_pre = 452935 
n_ref = 7310313499448795487 
n_req = 2668106 
total_req = 2706926 

Dual Bus Interface Util: 
issued_total_row = 905886 
issued_total_col = 2706926 
Row_Bus_Util =  0.037533 
CoL_Bus_Util = 0.112153 
Either_Row_CoL_Bus_Util = 0.148955 
Issued_on_Two_Bus_Simul_Util = 0.000731 
issued_two_Eff = 0.004909 
queue_avg = 4.508941 


dram_util_bins: 0 0 0 0 0 0 0 0 0 0
dram_eff_bins: 0 0 0 0 0 0 0 0 0 0
mrqq: max=64 avg=4.50894

========= L2 cache stats =========
L2_cache_bank[0]: Access = 1814692, Miss = 1353637, Miss_rate = 0.746, Pending_hits = 236561, Reservation_fails = 0
L2_cache_bank[1]: Access = 1814592, Miss = 1353558, Miss_rate = 0.746, Pending_hits = 237509, Reservation_fails = 0
L2_cache_bank[2]: Access = 1814175, Miss = 1353630, Miss_rate = 0.746, Pending_hits = 237432, Reservation_fails = 0
L2_cache_bank[3]: Access = 1814693, Miss = 1353561, Miss_rate = 0.746, Pending_hits = 237777, Reservation_fails = 0
L2_cache_bank[4]: Access = 1814580, Miss = 1353577, Miss_rate = 0.746, Pending_hits = 237171, Reservation_fails = 0
L2_cache_bank[5]: Access = 1814208, Miss = 1353587, Miss_rate = 0.746, Pending_hits = 237145, Reservation_fails = 0
L2_cache_bank[6]: Access = 1814732, Miss = 1353598, Miss_rate = 0.746, Pending_hits = 236793, Reservation_fails = 0
L2_cache_bank[7]: Access = 1814730, Miss = 1353623, Miss_rate = 0.746, Pending_hits = 236744, Reservation_fails = 0
L2_cache_bank[8]: Access = 1814387, Miss = 1353671, Miss_rate = 0.746, Pending_hits = 236680, Reservation_fails = 0
L2_cache_bank[9]: Access = 1814917, Miss = 1353681, Miss_rate = 0.746, Pending_hits = 237019, Reservation_fails = 0
L2_cache_bank[10]: Access = 1814837, Miss = 1353661, Miss_rate = 0.746, Pending_hits = 236772, Reservation_fails = 0
L2_cache_bank[11]: Access = 1814393, Miss = 1353638, Miss_rate = 0.746, Pending_hits = 237233, Reservation_fails = 0
L2_cache_bank[12]: Access = 1814795, Miss = 1353634, Miss_rate = 0.746, Pending_hits = 236743, Reservation_fails = 0
L2_cache_bank[13]: Access = 1814772, Miss = 1353595, Miss_rate = 0.746, Pending_hits = 237402, Reservation_fails = 0
L2_cache_bank[14]: Access = 1814377, Miss = 1353578, Miss_rate = 0.746, Pending_hits = 236797, Reservation_fails = 0
L2_cache_bank[15]: Access = 1815067, Miss = 1353561, Miss_rate = 0.746, Pending_hits = 237033, Reservation_fails = 0
L2_cache_bank[16]: Access = 1814988, Miss = 1353497, Miss_rate = 0.746, Pending_hits = 236580, Reservation_fails = 0
L2_cache_bank[17]: Access = 1814509, Miss = 1353574, Miss_rate = 0.746, Pending_hits = 236957, Reservation_fails = 0
L2_cache_bank[18]: Access = 1814988, Miss = 1353597, Miss_rate = 0.746, Pending_hits = 236484, Reservation_fails = 0
L2_cache_bank[19]: Access = 1814807, Miss = 1353614, Miss_rate = 0.746, Pending_hits = 237062, Reservation_fails = 0
L2_cache_bank[20]: Access = 1814322, Miss = 1353648, Miss_rate = 0.746, Pending_hits = 236856, Reservation_fails = 0
L2_cache_bank[21]: Access = 1814733, Miss = 1353653, Miss_rate = 0.746, Pending_hits = 237135, Reservation_fails = 0
L2_cache_bank[22]: Access = 1814579, Miss = 1353624, Miss_rate = 0.746, Pending_hits = 236505, Reservation_fails = 0
L2_cache_bank[23]: Access = 1814194, Miss = 1353622, Miss_rate = 0.746, Pending_hits = 236957, Reservation_fails = 0
L2_total_cache_accesses = 43551067
L2_total_cache_misses = 32486619
L2_total_cache_miss_rate = 0.7459
L2_total_cache_pending_hits = 5687347
L2_total_cache_reservation_fails = 0
L2_total_cache_breakdown:
	L2_cache_stats_breakdown[GLOBAL_ACC_R][HIT] = 5203430
	L2_cache_stats_breakdown[GLOBAL_ACC_R][HIT_RESERVED] = 5687347
	L2_cache_stats_breakdown[GLOBAL_ACC_R][MISS] = 7975788
	L2_cache_stats_breakdown[GLOBAL_ACC_R][RESERVATION_FAIL] = 0
	L2_cache_stats_breakdown[GLOBAL_ACC_R][SECTOR_MISS] = 23885809
	L2_cache_stats_breakdown[GLOBAL_ACC_R][MSHR_HIT] = 5687347
	L2_cache_stats_breakdown[LOCAL_ACC_R][HIT] = 0
	L2_cache_stats_breakdown[LOCAL_ACC_R][HIT_RESERVED] = 0
	L2_cache_stats_breakdown[LOCAL_ACC_R][MISS] = 0
	L2_cache_stats_breakdown[LOCAL_ACC_R][RESERVATION_FAIL] = 0
	L2_cache_stats_breakdown[LOCAL_ACC_R][SECTOR_MISS] = 0
	L2_cache_stats_breakdown[LOCAL_ACC_R][MSHR_HIT] = 0
	L2_cache_stats_breakdown[CONST_ACC_R][HIT] = 0
	L2_cache_stats_breakdown[CONST_ACC_R][HIT_RESERVED] = 0
	L2_cache_stats_breakdown[CONST_ACC_R][MISS] = 0
	L2_cache_stats_breakdown[CONST_ACC_R][RESERVATION_FAIL] = 0
	L2_cache_stats_breakdown[CONST_ACC_R][SECTOR_MISS] = 0
	L2_cache_stats_breakdown[CONST_ACC_R][MSHR_HIT] = 0
	L2_cache_stats_breakdown[TEXTURE_ACC_R][HIT] = 0
	L2_cache_stats_breakdown[TEXTURE_ACC_R][HIT_RESERVED] = 0
	L2_cache_stats_breakdown[TEXTURE_ACC_R][MISS] = 0
	L2_cache_stats_breakdown[TEXTURE_ACC_R][RESERVATION_FAIL] = 0
	L2_cache_stats_breakdown[TEXTURE_ACC_R][SECTOR_MISS] = 0
	L2_cache_stats_breakdown[TEXTURE_ACC_R][MSHR_HIT] = 0
	L2_cache_stats_breakdown[GLOBAL_ACC_W][HIT] = 173671
	L2_cache_stats_breakdown[GLOBAL_ACC_W][HIT_RESERVED] = 0
	L2_cache_stats_breakdown[GLOBAL_ACC_W][MISS] = 156272
	L2_cache_stats_breakdown[GLOBAL_ACC_W][RESERVATION_FAIL] = 0
	L2_cache_stats_breakdown[GLOBAL_ACC_W][SECTOR_MISS] = 468750
	L2_cache_stats_breakdown[GLOBAL_ACC_W][MSHR_HIT] = 0
	L2_cache_stats_breakdown[LOCAL_ACC_W][HIT] = 0
	L2_cache_stats_breakdown[LOCAL_ACC_W][HIT_RESERVED] = 0
	L2_cache_stats_breakdown[LOCAL_ACC_W][MISS] = 0
	L2_cache_stats_breakdown[LOCAL_ACC_W][RESERVATION_FAIL] = 0
	L2_cache_stats_breakdown[LOCAL_ACC_W][SECTOR_MISS] = 0
	L2_cache_stats_breakdown[LOCAL_ACC_W][MSHR_HIT] = 0
	L2_cache_stats_breakdown[L1_WRBK_ACC][HIT] = 0
	L2_cache_stats_breakdown[L1_WRBK_ACC][HIT_RESERVED] = 0
	L2_cache_stats_breakdown[L1_WRBK_ACC][MISS] = 0
	L2_cache_stats_breakdown[L1_WRBK_ACC][RESERVATION_FAIL] = 0
	L2_cache_stats_breakdown[L1_WRBK_ACC][SECTOR_MISS] = 0
	L2_cache_stats_breakdown[L1_WRBK_ACC][MSHR_HIT] = 0
	L2_cache_stats_breakdown[L2_WRBK_ACC][HIT] = 0
	L2_cache_stats_breakdown[L2_WRBK_ACC][HIT_RESERVED] = 0
	L2_cache_stats_breakdown[L2_WRBK_ACC][MISS] = 0
	L2_cache_stats_breakdown[L2_WRBK_ACC][RESERVATION_FAIL] = 0
	L2_cache_stats_breakdown[L2_WRBK_ACC][SECTOR_MISS] = 0
	L2_cache_stats_breakdown[L2_WRBK_ACC][MSHR_HIT] = 0
	L2_cache_stats_breakdown[INST_ACC_R][HIT] = 0
	L2_cache_stats_breakdown[INST_ACC_R][HIT_RESERVED] = 0
	L2_cache_stats_breakdown[INST_ACC_R][MISS] = 0
	L2_cache_stats_breakdown[INST_ACC_R][RESERVATION_FAIL] = 0
	L2_cache_stats_breakdown[INST_ACC_R][SECTOR_MISS] = 0
	L2_cache_stats_breakdown[INST_ACC_R][MSHR_HIT] = 0
	L2_cache_stats_breakdown[L1_WR_ALLOC_R][HIT] = 0
	L2_cache_stats_breakdown[L1_WR_ALLOC_R][HIT_RESERVED] = 0
	L2_cache_stats_breakdown[L1_WR_ALLOC_R][MISS] = 0
	L2_cache_stats_breakdown[L1_WR_ALLOC_R][RESERVATION_FAIL] = 0
	L2_cache_stats_breakdown[L1_WR_ALLOC_R][SECTOR_MISS] = 0
	L2_cache_stats_breakdown[L1_WR_ALLOC_R][MSHR_HIT] = 0
	L2_cache_stats_breakdown[L2_WR_ALLOC_R][HIT] = 0
	L2_cache_stats_breakdown[L2_WR_ALLOC_R][HIT_RESERVED] = 0
	L2_cache_stats_breakdown[L2_WR_ALLOC_R][MISS] = 0
	L2_cache_stats_breakdown[L2_WR_ALLOC_R][RESERVATION_FAIL] = 0
	L2_cache_stats_breakdown[L2_WR_ALLOC_R][SECTOR_MISS] = 0
	L2_cache_stats_breakdown[L2_WR_ALLOC_R][MSHR_HIT] = 0
	L2_cache_stats_breakdown[GLOBAL_ACC_R][TOTAL_ACCESS] = 42752374
	L2_cache_stats_breakdown[GLOBAL_ACC_W][TOTAL_ACCESS] = 798693
L2_total_cache_reservation_fail_breakdown:
L2_cache_data_port_util = 0.024
L2_cache_fill_port_util = 0.141

icnt_total_pkts_mem_to_simt=43551067
icnt_total_pkts_simt_to_mem=43551067
LD_mem_lat_dist  0 0 0 0 0 0 0 0 0 0 0 0 0 0 0 0 0 0 0 0 0 0 0 0 0 0 0
ST_mem_lat_dist  0 0 0 0 0 0 0 0 0 0 0 0 0 0 0 0 0 0 0 0 0 0 0 0 0 0 0
----------------------------Interconnect-DETAILS--------------------------------
Req_Network_injected_packets_num = 43551067
Req_Network_cycles = 9411675
Req_Network_injected_packets_per_cycle =       4.6273 
Req_Network_conflicts_per_cycle =       0.7773
Req_Network_conflicts_per_cycle_util =       0.7899
Req_Bank_Level_Parallism =       4.7019
Req_Network_in_buffer_full_per_cycle =       0.0000
Req_Network_in_buffer_avg_util =       0.2835
Req_Network_out_buffer_full_per_cycle =       0.0000
Req_Network_out_buffer_avg_util =       0.1928

Reply_Network_injected_packets_num = 43551067
Reply_Network_cycles = 9411675
Reply_Network_injected_packets_per_cycle =        4.6273
Reply_Network_conflicts_per_cycle =        2.4006
Reply_Network_conflicts_per_cycle_util =       2.4365
Reply_Bank_Level_Parallism =       4.6965
Reply_Network_in_buffer_full_per_cycle =       0.0000
Reply_Network_in_buffer_avg_util =       0.2383
Reply_Network_out_buffer_full_per_cycle =       0.0000
Reply_Network_out_buffer_avg_util =       0.1542
----------------------------END-of-Interconnect-DETAILS-------------------------


gpgpu_simulation_time = 1 days, 14 hrs, 16 min, 29 sec (137789 sec)
gpgpu_simulation_rate = 86071 (inst/sec)
gpgpu_simulation_rate = 68 (cycle/sec)
gpgpu_silicon_slowdown = 20073529x
GPGPU-Sim: *** exit detected ***
