

        *** GPGPU-Sim Simulator Version 4.2.0  [build gpgpu-sim_git-commit-5e9d31b8132651796656877ecb58fde27177ba7a_modified_315.0] ***


GPGPU-Sim PTX: simulation mode 0 (can change with PTX_SIM_MODE_FUNC environment variable:
               1=functional simulation only, 0=detailed performance simulator)
GPGPU-Sim PTX: overriding embedded ptx with ptx file (PTX_SIM_USE_PTX_FILE is set)
GPGPU-Sim: Configuration options:

-save_embedded_ptx                      0 # saves ptx files embedded in binary as <n>.ptx
-keep                                   0 # keep intermediate files created by GPGPU-Sim when interfacing with external programs
-gpgpu_ptx_save_converted_ptxplus                    0 # Saved converted ptxplus to a file
-gpgpu_occupancy_sm_number                   75 # The SM number to pass to ptxas when getting register usage for computing GPU occupancy. This parameter is required in the config.
-ptx_opcode_latency_int           4,4,4,4,21 # Opcode latencies for integers <ADD,MAX,MUL,MAD,DIV,SHFL>Default 1,1,19,25,145,32
-ptx_opcode_latency_fp           4,4,4,4,39 # Opcode latencies for single precision floating points <ADD,MAX,MUL,MAD,DIV>Default 1,1,1,1,30
-ptx_opcode_latency_dp      64,64,64,64,330 # Opcode latencies for double precision floating points <ADD,MAX,MUL,MAD,DIV>Default 8,8,8,8,335
-ptx_opcode_latency_sfu                   21 # Opcode latencies for SFU instructionsDefault 8
-ptx_opcode_latency_tesnor                   64 # Opcode latencies for Tensor instructionsDefault 64
-ptx_opcode_initiation_int            2,2,2,2,2 # Opcode initiation intervals for integers <ADD,MAX,MUL,MAD,DIV,SHFL>Default 1,1,4,4,32,4
-ptx_opcode_initiation_fp            2,2,2,2,4 # Opcode initiation intervals for single precision floating points <ADD,MAX,MUL,MAD,DIV>Default 1,1,1,1,5
-ptx_opcode_initiation_dp      64,64,64,64,130 # Opcode initiation intervals for double precision floating points <ADD,MAX,MUL,MAD,DIV>Default 8,8,8,8,130
-ptx_opcode_initiation_sfu                    8 # Opcode initiation intervals for sfu instructionsDefault 8
-ptx_opcode_initiation_tensor                   64 # Opcode initiation intervals for tensor instructionsDefault 64
-cdp_latency         7200,8000,100,12000,1600 # CDP API latency <cudaStreamCreateWithFlags, cudaGetParameterBufferV2_init_perWarp, cudaGetParameterBufferV2_perKernel, cudaLaunchDeviceV2_init_perWarp, cudaLaunchDevicV2_perKernel>Default 7200,8000,100,12000,1600
-network_mode                           2 # Interconnection network mode
-inter_config_file                   mesh # Interconnection network config file
-icnt_in_buffer_limit                  512 # in_buffer_limit
-icnt_out_buffer_limit                  512 # out_buffer_limit
-icnt_subnets                           2 # subnets
-icnt_arbiter_algo                      1 # arbiter_algo
-icnt_verbose                           0 # inct_verbose
-icnt_grant_cycles                      1 # grant_cycles
-gpgpu_ptx_use_cuobjdump                    1 # Use cuobjdump to extract ptx and sass from binaries
-gpgpu_experimental_lib_support                    0 # Try to extract code from cuda libraries [Broken because of unknown cudaGetExportTable]
-checkpoint_option                      0 #  checkpointing flag (0 = no checkpoint)
-checkpoint_kernel                      1 #  checkpointing during execution of which kernel (1- 1st kernel)
-checkpoint_CTA                         0 #  checkpointing after # of CTA (< less than total CTA)
-resume_option                          0 #  resume flag (0 = no resume)
-resume_kernel                          0 #  Resume from which kernel (1= 1st kernel)
-resume_CTA                             0 #  resume from which CTA 
-checkpoint_CTA_t                       0 #  resume from which CTA 
-checkpoint_insn_Y                      0 #  resume from which CTA 
-gpgpu_ptx_convert_to_ptxplus                    0 # Convert SASS (native ISA) to ptxplus and run ptxplus
-gpgpu_ptx_force_max_capability                   75 # Force maximum compute capability
-gpgpu_ptx_inst_debug_to_file                    0 # Dump executed instructions' debug information to file
-gpgpu_ptx_inst_debug_file       inst_debug.txt # Executed instructions' debug output file
-gpgpu_ptx_inst_debug_thread_uid                    1 # Thread UID for executed instructions' debug output
-gpgpu_simd_model                       1 # 1 = post-dominator
-gpgpu_shader_core_pipeline              1024:32 # shader core pipeline config, i.e., {<nthread>:<warpsize>}
-gpgpu_tex_cache:l1  N:4:128:256,L:R:m:N:L,T:512:8,128:2 # per-shader L1 texture cache  (READ-ONLY) config  {<nsets>:<bsize>:<assoc>,<rep>:<wr>:<alloc>:<wr_alloc>,<mshr>:<N>:<merge>,<mq>:<rf>}
-gpgpu_const_cache:l1 N:128:64:8,L:R:f:N:L,S:2:64,4 # per-shader L1 constant memory cache  (READ-ONLY) config  {<nsets>:<bsize>:<assoc>,<rep>:<wr>:<alloc>:<wr_alloc>,<mshr>:<N>:<merge>,<mq>} 
-gpgpu_cache:il1     N:64:128:16,L:R:f:N:L,S:2:48,4 # shader L1 instruction cache config  {<nsets>:<bsize>:<assoc>,<rep>:<wr>:<alloc>:<wr_alloc>,<mshr>:<N>:<merge>,<mq>} 
-gpgpu_cache:dl1     S:4:128:64,L:T:m:L:L,A:256:32,16:0,32 # per-shader L1 data cache config  {<nsets>:<bsize>:<assoc>,<rep>:<wr>:<alloc>:<wr_alloc>,<mshr>:<N>:<merge>,<mq> | none}
-gpgpu_l1_cache_write_ratio                   25 # L1D write ratio
-gpgpu_l1_banks                         4 # The number of L1 cache banks
-gpgpu_l1_banks_byte_interleaving                   32 # l1 banks byte interleaving granularity
-gpgpu_l1_banks_hashing_function                    0 # l1 banks hashing function
-gpgpu_l1_latency                      32 # L1 Hit Latency
-gpgpu_smem_latency                    30 # smem Latency
-gpgpu_cache:dl1PrefL1                 none # per-shader L1 data cache config  {<nsets>:<bsize>:<assoc>,<rep>:<wr>:<alloc>:<wr_alloc>,<mshr>:<N>:<merge>,<mq> | none}
-gpgpu_cache:dl1PrefShared                 none # per-shader L1 data cache config  {<nsets>:<bsize>:<assoc>,<rep>:<wr>:<alloc>:<wr_alloc>,<mshr>:<N>:<merge>,<mq> | none}
-gpgpu_gmem_skip_L1D                    0 # global memory access skip L1D cache (implements -Xptxas -dlcm=cg, default=no skip)
-gpgpu_perfect_mem                      0 # enable perfect memory mode (no cache miss)
-n_regfile_gating_group                    4 # group of lanes that should be read/written together)
-gpgpu_clock_gated_reg_file                    0 # enable clock gated reg file for power calculations
-gpgpu_clock_gated_lanes                    0 # enable clock gated lanes for power calculations
-gpgpu_shader_registers                65536 # Number of registers per shader core. Limits number of concurrent CTAs. (default 8192)
-gpgpu_registers_per_block                65536 # Maximum number of registers per CTA. (default 8192)
-gpgpu_ignore_resources_limitation                    0 # gpgpu_ignore_resources_limitation (default 0)
-gpgpu_shader_cta                      16 # Maximum number of concurrent CTAs in shader (default 32)
-gpgpu_num_cta_barriers                   16 # Maximum number of named barriers per CTA (default 16)
-gpgpu_n_clusters                      30 # number of processing clusters
-gpgpu_n_cores_per_cluster                    1 # number of simd cores per cluster
-gpgpu_n_cluster_ejection_buffer_size                   32 # number of packets in ejection buffer
-gpgpu_n_ldst_response_buffer_size                    2 # number of response packets in ld/st unit ejection buffer
-gpgpu_shmem_per_block                49152 # Size of shared memory per thread block or CTA (default 48kB)
-gpgpu_shmem_size                   65536 # Size of shared memory per shader core (default 16kB)
-gpgpu_shmem_option                 32,64 # Option list of shared memory sizes
-gpgpu_unified_l1d_size                   96 # Size of unified data cache(L1D + shared memory) in KB
-gpgpu_adaptive_cache_config                    1 # adaptive_cache_config
-gpgpu_shmem_sizeDefault                65536 # Size of shared memory per shader core (default 16kB)
-gpgpu_shmem_size_PrefL1                16384 # Size of shared memory per shader core (default 16kB)
-gpgpu_shmem_size_PrefShared                16384 # Size of shared memory per shader core (default 16kB)
-gpgpu_shmem_num_banks                   32 # Number of banks in the shared memory in each shader core (default 16)
-gpgpu_shmem_limited_broadcast                    0 # Limit shared memory to do one broadcast per cycle (default on)
-gpgpu_shmem_warp_parts                    1 # Number of portions a warp is divided into for shared memory bank conflict check 
-gpgpu_mem_unit_ports                    1 # The number of memory transactions allowed per core cycle
-gpgpu_shmem_warp_parts                    1 # Number of portions a warp is divided into for shared memory bank conflict check 
-gpgpu_warpdistro_shader                   -1 # Specify which shader core to collect the warp size distribution from
-gpgpu_warp_issue_shader                    0 # Specify which shader core to collect the warp issue distribution from
-gpgpu_local_mem_map                    1 # Mapping from local memory space address to simulated GPU physical address space (default = enabled)
-gpgpu_num_reg_banks                    8 # Number of register banks (default = 8)
-gpgpu_reg_bank_use_warp_id                    0 # Use warp ID in mapping registers to banks (default = off)
-gpgpu_sub_core_model                    1 # Sub Core Volta/Pascal model (default = off)
-gpgpu_enable_specialized_operand_collector                    0 # enable_specialized_operand_collector
-gpgpu_operand_collector_num_units_sp                    4 # number of collector units (default = 4)
-gpgpu_operand_collector_num_units_dp                    0 # number of collector units (default = 0)
-gpgpu_operand_collector_num_units_sfu                    4 # number of collector units (default = 4)
-gpgpu_operand_collector_num_units_int                    0 # number of collector units (default = 0)
-gpgpu_operand_collector_num_units_tensor_core                    4 # number of collector units (default = 4)
-gpgpu_operand_collector_num_units_mem                    2 # number of collector units (default = 2)
-gpgpu_operand_collector_num_units_gen                    8 # number of collector units (default = 0)
-gpgpu_operand_collector_num_in_ports_sp                    1 # number of collector unit in ports (default = 1)
-gpgpu_operand_collector_num_in_ports_dp                    0 # number of collector unit in ports (default = 0)
-gpgpu_operand_collector_num_in_ports_sfu                    1 # number of collector unit in ports (default = 1)
-gpgpu_operand_collector_num_in_ports_int                    0 # number of collector unit in ports (default = 0)
-gpgpu_operand_collector_num_in_ports_tensor_core                    1 # number of collector unit in ports (default = 1)
-gpgpu_operand_collector_num_in_ports_mem                    1 # number of collector unit in ports (default = 1)
-gpgpu_operand_collector_num_in_ports_gen                    8 # number of collector unit in ports (default = 0)
-gpgpu_operand_collector_num_out_ports_sp                    1 # number of collector unit in ports (default = 1)
-gpgpu_operand_collector_num_out_ports_dp                    0 # number of collector unit in ports (default = 0)
-gpgpu_operand_collector_num_out_ports_sfu                    1 # number of collector unit in ports (default = 1)
-gpgpu_operand_collector_num_out_ports_int                    0 # number of collector unit in ports (default = 0)
-gpgpu_operand_collector_num_out_ports_tensor_core                    1 # number of collector unit in ports (default = 1)
-gpgpu_operand_collector_num_out_ports_mem                    1 # number of collector unit in ports (default = 1)
-gpgpu_operand_collector_num_out_ports_gen                    8 # number of collector unit in ports (default = 0)
-gpgpu_coalesce_arch                   75 # Coalescing arch (GT200 = 13, Fermi = 20)
-gpgpu_num_sched_per_core                    4 # Number of warp schedulers per core
-gpgpu_max_insn_issue_per_warp                    1 # Max number of instructions that can be issued per warp in one cycle by scheduler (either 1 or 2)
-gpgpu_dual_issue_diff_exec_units                    1 # should dual issue use two different execution unit resources (Default = 1)
-gpgpu_simt_core_sim_order                    1 # Select the simulation order of cores in a cluster (0=Fix, 1=Round-Robin)
-gpgpu_pipeline_widths 4,4,4,4,4,4,4,4,4,4,8,4,4 # Pipeline widths ID_OC_SP,ID_OC_DP,ID_OC_INT,ID_OC_SFU,ID_OC_MEM,OC_EX_SP,OC_EX_DP,OC_EX_INT,OC_EX_SFU,OC_EX_MEM,EX_WB,ID_OC_TENSOR_CORE,OC_EX_TENSOR_CORE
-gpgpu_tensor_core_avail                    1 # Tensor Core Available (default=0)
-gpgpu_num_sp_units                     4 # Number of SP units (default=1)
-gpgpu_num_dp_units                     4 # Number of DP units (default=0)
-gpgpu_num_int_units                    4 # Number of INT units (default=0)
-gpgpu_num_sfu_units                    4 # Number of SF units (default=1)
-gpgpu_num_tensor_core_units                    4 # Number of tensor_core units (default=1)
-gpgpu_num_mem_units                    1 # Number if ldst units (default=1) WARNING: not hooked up to anything
-gpgpu_scheduler                      lrr # Scheduler configuration: < lrr | gto | two_level_active > If two_level_active:<num_active_warps>:<inner_prioritization>:<outer_prioritization>For complete list of prioritization values see shader.h enum scheduler_prioritization_typeDefault: gto
-gpgpu_concurrent_kernel_sm                    0 # Support concurrent kernels on a SM (default = disabled)
-gpgpu_perfect_inst_const_cache                    1 # perfect inst and const cache mode, so all inst and const hits in the cache(default = disabled)
-gpgpu_inst_fetch_throughput                    4 # the number of fetched intruction per warp each cycle
-gpgpu_reg_file_port_throughput                    2 # the number ports of the register file
-specialized_unit_1         0,4,4,4,4,BRA # specialized unit config {<enabled>,<num_units>:<latency>:<initiation>,<ID_OC_SPEC>:<OC_EX_SPEC>,<NAME>}
-specialized_unit_2         0,4,4,4,4,BRA # specialized unit config {<enabled>,<num_units>:<latency>:<initiation>,<ID_OC_SPEC>:<OC_EX_SPEC>,<NAME>}
-specialized_unit_3         0,4,4,4,4,BRA # specialized unit config {<enabled>,<num_units>:<latency>:<initiation>,<ID_OC_SPEC>:<OC_EX_SPEC>,<NAME>}
-specialized_unit_4         0,4,4,4,4,BRA # specialized unit config {<enabled>,<num_units>:<latency>:<initiation>,<ID_OC_SPEC>:<OC_EX_SPEC>,<NAME>}
-specialized_unit_5         0,4,4,4,4,BRA # specialized unit config {<enabled>,<num_units>:<latency>:<initiation>,<ID_OC_SPEC>:<OC_EX_SPEC>,<NAME>}
-specialized_unit_6         0,4,4,4,4,BRA # specialized unit config {<enabled>,<num_units>:<latency>:<initiation>,<ID_OC_SPEC>:<OC_EX_SPEC>,<NAME>}
-specialized_unit_7         0,4,4,4,4,BRA # specialized unit config {<enabled>,<num_units>:<latency>:<initiation>,<ID_OC_SPEC>:<OC_EX_SPEC>,<NAME>}
-specialized_unit_8         0,4,4,4,4,BRA # specialized unit config {<enabled>,<num_units>:<latency>:<initiation>,<ID_OC_SPEC>:<OC_EX_SPEC>,<NAME>}
-gpgpu_perf_sim_memcpy                    1 # Fill the L2 cache on memcpy
-gpgpu_simple_dram_model                    0 # simple_dram_model with fixed latency and BW
-gpgpu_dram_scheduler                    1 # 0 = fifo, 1 = FR-FCFS (defaul)
-gpgpu_dram_partition_queues          64:64:64:64 # i2$:$2d:d2$:$2i
-l2_ideal                               0 # Use a ideal L2 cache that always hit
-gpgpu_cache:dl2     S:64:128:16,L:B:m:L:P,A:192:4,32:0,32 # unified banked L2 data cache config  {<nsets>:<bsize>:<assoc>,<rep>:<wr>:<alloc>:<wr_alloc>,<mshr>:<N>:<merge>,<mq>}
-gpgpu_cache:dl2_texture_only                    0 # L2 cache used for texture only
-gpgpu_n_mem                           12 # number of memory modules (e.g. memory controllers) in gpu
-gpgpu_n_sub_partition_per_mchannel                    2 # number of memory subpartition in each memory module
-gpgpu_n_mem_per_ctrlr                    1 # number of memory chips per memory controller
-gpgpu_memlatency_stat                   14 # track and display latency statistics 0x2 enables MC, 0x4 enables queue logs
-gpgpu_frfcfs_dram_sched_queue_size                   64 # 0 = unlimited (default); # entries per chip
-gpgpu_dram_return_queue_size                  192 # 0 = unlimited (default); # entries per chip
-gpgpu_dram_buswidth                    2 # default = 4 bytes (8 bytes per cycle at DDR)
-gpgpu_dram_burst_length                   16 # Burst length of each DRAM request (default = 4 data bus cycle)
-dram_data_command_freq_ratio                    4 # Frequency ratio between DRAM data bus and command bus (default = 2 times, i.e. DDR)
-gpgpu_dram_timing_opt nbk=16:CCD=4:RRD=12:RCD=24:RAS=55:RP=24:RC=78:CL=24:WL=8:CDLR=10:WR=24:nbkgrp=4:CCDL=6:RTPL=4 # DRAM timing parameters = {nbk:tCCD:tRRD:tRCD:tRAS:tRP:tRC:CL:WL:tCDLR:tWR:nbkgrp:tCCDL:tRTPL}
-gpgpu_l2_rop_latency                  194 # ROP queue latency (default 85)
-dram_latency                          96 # DRAM latency (default 30)
-dram_dual_bus_interface                    0 # dual_bus_interface (default = 0) 
-dram_bnk_indexing_policy                    0 # dram_bnk_indexing_policy (0 = normal indexing, 1 = Xoring with the higher bits) (Default = 0)
-dram_bnkgrp_indexing_policy                    1 # dram_bnkgrp_indexing_policy (0 = take higher bits, 1 = take lower bits) (Default = 0)
-dram_seperate_write_queue_enable                    0 # Seperate_Write_Queue_Enable
-dram_write_queue_size             32:28:16 # Write_Queue_Size
-dram_elimnate_rw_turnaround                    0 # elimnate_rw_turnaround i.e set tWTR and tRTW = 0
-icnt_flit_size                        40 # icnt_flit_size
-icnt_flit_size                        40 # icnt_flit_size
-mem_profiler                           1 # memory access runtime profiling (0 = not enabled)
-gpgpu_mem_addr_mapping dramid@8;00000000.00000000.00000000.00000000.0000RRRR.RRRRRRRR.RBBBCCCC.BCCSSSSS # mapping memory address to dram model {dramid@<start bit>;<memory address map>}
-gpgpu_mem_addr_test                    0 # run sweep test to check address mapping for aliased address
-gpgpu_mem_address_mask                    1 # 0 = old addressing mask, 1 = new addressing mask, 2 = new add. mask + flipped bank sel and chip sel bits
-gpgpu_memory_partition_indexing                    0 # 0 = no indexing, 1 = bitwise xoring, 2 = IPoly, 3 = custom indexing
-accelwattch_xml_file accelwattch_sass_sim.xml # AccelWattch XML file
-power_simulation_enabled                    1 # Turn on power simulator (1=On, 0=Off)
-power_per_cycle_dump                    1 # Dump detailed power output each cycle
-hw_perf_file_name            hw_perf.csv # Hardware Performance Statistics file
-hw_perf_bench_name    hw_perf_bench_name # Kernel Name in Hardware Performance Statistics file
-power_simulation_mode                    0 # Switch performance counter input for power simulation (0=Sim, 1=HW, 2=HW-Sim Hybrid)
-dvfs_enabled                           1 # Turn on DVFS for power model
-aggregate_power_stats                    0 # Accumulate power across all kernels
-accelwattch_hybrid_perfsim_L1_RH                    0 # Get L1 Read Hits for Accelwattch-Hybrid from Accel-Sim
-accelwattch_hybrid_perfsim_L1_RM                    0 # Get L1 Read Misses for Accelwattch-Hybrid from Accel-Sim
-accelwattch_hybrid_perfsim_L1_WH                    0 # Get L1 Write Hits for Accelwattch-Hybrid from Accel-Sim
-accelwattch_hybrid_perfsim_L1_WM                    0 # Get L1 Write Misses for Accelwattch-Hybrid from Accel-Sim
-accelwattch_hybrid_perfsim_L2_RH                    0 # Get L2 Read Hits for Accelwattch-Hybrid from Accel-Sim
-accelwattch_hybrid_perfsim_L2_RM                    0 # Get L2 Read Misses for Accelwattch-Hybrid from Accel-Sim
-accelwattch_hybrid_perfsim_L2_WH                    0 # Get L2 Write Hits for Accelwattch-Hybrid from Accel-Sim
-accelwattch_hybrid_perfsim_L2_WM                    0 # Get L2 Write Misses for Accelwattch-Hybrid from Accel-Sim
-accelwattch_hybrid_perfsim_CC_ACC                    0 # Get Constant Cache Acesses for Accelwattch-Hybrid from Accel-Sim
-accelwattch_hybrid_perfsim_SHARED_ACC                    0 # Get Shared Memory Acesses for Accelwattch-Hybrid from Accel-Sim
-accelwattch_hybrid_perfsim_DRAM_RD                    0 # Get DRAM Reads for Accelwattch-Hybrid from Accel-Sim
-accelwattch_hybrid_perfsim_DRAM_WR                    0 # Get DRAM Writes for Accelwattch-Hybrid from Accel-Sim
-accelwattch_hybrid_perfsim_NOC                    0 # Get Interconnect Acesses for Accelwattch-Hybrid from Accel-Sim
-accelwattch_hybrid_perfsim_PIPE_DUTY                    0 # Get Pipeline Duty Cycle Acesses for Accelwattch-Hybrid from Accel-Sim
-accelwattch_hybrid_perfsim_NUM_SM_IDLE                    0 # Get Number of Idle SMs for Accelwattch-Hybrid from Accel-Sim
-accelwattch_hybrid_perfsim_CYCLES                    0 # Get Executed Cycles for Accelwattch-Hybrid from Accel-Sim
-accelwattch_hybrid_perfsim_VOLTAGE                    0 # Get Chip Voltage for Accelwattch-Hybrid from Accel-Sim
-power_trace_enabled                    0 # produce a file for the power trace (1=On, 0=Off)
-power_trace_zlevel                     0 # Compression level of the power trace output log (0=no comp, 9=highest)
-steady_power_levels_enabled                    0 # produce a file for the steady power levels (1=On, 0=Off)
-steady_state_definition                  8:4 # allowed deviation:number of samples
-gpgpu_max_cycle                        0 # terminates gpu simulation early (0 = no limit)
-gpgpu_max_insn                         0 # terminates gpu simulation early (0 = no limit)
-gpgpu_max_cta                          0 # terminates gpu simulation early (0 = no limit)
-gpgpu_max_completed_cta                    0 # terminates gpu simulation early (0 = no limit)
-gpgpu_runtime_stat                   100 # display runtime statistics such as dram utilization {<freq>:<flag>}
-liveness_message_freq                    1 # Minimum number of seconds between simulation liveness messages (0 = always print)
-gpgpu_compute_capability_major                    7 # Major compute capability version number
-gpgpu_compute_capability_minor                    5 # Minor compute capability version number
-gpgpu_flush_l1_cache                    1 # Flush L1 cache at the end of each kernel call
-gpgpu_flush_l2_cache                    0 # Flush L2 cache at the end of each kernel call
-gpgpu_deadlock_detect                    1 # Stop the simulation at deadlock (1=on (default), 0=off)
-gpgpu_ptx_instruction_classification                    0 # if enabled will classify ptx instruction types per kernel (Max 255 kernels now)
-gpgpu_ptx_sim_mode                     0 # Select between Performance (default) or Functional simulation (1)
-gpgpu_clock_domains 1365:1365:1365:3500.5 # Clock Domain Frequencies in MhZ {<Core Clock>:<ICNT Clock>:<L2 Clock>:<DRAM Clock>}
-gpgpu_max_concurrent_kernel                  128 # maximum kernels that can run concurrently on GPU, set this value according to max resident grids for your compute capability
-gpgpu_cflog_interval                    0 # Interval between each snapshot in control flow logger
-visualizer_enabled                     0 # Turn on visualizer output (1=On, 0=Off)
-visualizer_outputfile                 NULL # Specifies the output log file for visualizer
-visualizer_zlevel                      6 # Compression level of the visualizer output log (0=no comp, 9=highest)
-gpgpu_stack_size_limit                 1024 # GPU thread stack size
-gpgpu_heap_size_limit              8388608 # GPU malloc heap size 
-gpgpu_runtime_sync_depth_limit                    2 # GPU device runtime synchronize depth
-gpgpu_runtime_pending_launch_count_limit                 2048 # GPU device runtime pending launch count
-trace_enabled                          0 # Turn on traces
-trace_components                    none # comma seperated list of traces to enable. Complete list found in trace_streams.tup. Default none
-trace_sampling_core                    0 # The core which is printed using CORE_DPRINTF. Default 0
-trace_sampling_memory_partition                   -1 # The memory partition which is printed using MEMPART_DPRINTF. Default -1 (i.e. all)
-enable_ptx_file_line_stats                    1 # Turn on PTX source line statistic profiling. (1 = On)
-ptx_line_stats_filename gpgpu_inst_stats.txt # Output file for PTX source line statistics.
-gpgpu_kernel_launch_latency                 5000 # Kernel launch latency in cycles. Default: 0
-gpgpu_cdp_enabled                      0 # Turn on CDP
-gpgpu_TB_launch_latency                    0 # thread block launch latency in cycles. Default: 0
-mem_runtime_stat              4294967396 # memory access runtime profiling sampling73d12597f62e83fd68a45fffe9b379b8  /home/pars/Documents/sim_5/pr_base
Extracting PTX file and ptxas options    1: pr_base.1.sm_75.ptx -arch=sm_75
 freq
-L1D_metrics                            1 # memory access runtime profiling for L1 data cache
-IPC_per_prof_interval                    1 # IPC per profiling interval
-instruction_monitor                    1 # Instruction monitor
-noncoal_metrics                        0 # memory access runtime profiling for shared memory
-L2_metrics                             1 # memory access runtime profiling for L2 cache
-DRAM_metrics                           1 # memory access runtime profiling for DRAM
-Shmem_metrics                          0 # memory access runtime profiling for noncoalesced accesses
-store_enable                           1 # Enable stores for memory profiling
-accumulate_stats                       0 # Accumulate stats for the memory profiling
-dump_enable                            0 # Process dump enable flag - (def = 0)
-flush_l1d                              0 # Enable flushings for L1D caches - (default = 0)
-flush_l2                               0 # Enable flushings for L2 caches - (default = 0)
-flush_dram                             0 # Enable flushings for DRAM - (default = 0)
-flush_noncoalesceds                    0 # Enable flushings for non coalesced accesses - (default = 0)
-flush_shmems                           0 # Enable flushings for shared memory accesses - (default = 0)
-error_percentage          21474836480001 # Error percentage for the flushes - (default = 1)
-dump_sampling_cycle       21474836485000 # Dump sampling frequency - (default = 5000)
-flush_acc_type                         2 # Flush access types
-monitor_sampling_cycle                 5000 # Monitoring sampling cycle - (default = 5000)
DRAM Timing Options:
nbk                                    16 # number of banks
CCD                                     4 # column to column delay
RRD                                    12 # minimal delay between activation of rows in different banks
RCD                                    24 # row to column delay
RAS                                    55 # time needed to activate row
RP                                     24 # time needed to precharge (deactivate) row
RC                                     78 # row cycle time
CDLR                                   10 # switching from write to read (changes tWTR)
WR                                     24 # last data-in to row precharge
CL                                     24 # CAS latency
WL                                      8 # Write latency
nbkgrp                                  4 # number of bank groups
CCDL                                    6 # column to column delay between accesses to different bank groups
RTPL                                    4 # read to precharge delay between accesses to different bank groups
Total number of memory sub partition = 24
addr_dec_mask[CHIP]  = 0000000000000000 	high:64 low:0
addr_dec_mask[BK]    = 0000000000007080 	high:15 low:7
addr_dec_mask[ROW]   = 000000000fff8000 	high:28 low:15
addr_dec_mask[COL]   = 0000000000000f7f 	high:12 low:0
addr_dec_mask[BURST] = 000000000000001f 	high:5 low:0
sub_partition_id_mask = 0000000000000080
GPGPU-Sim uArch: clock freqs: 1365000000.000000:1365000000.000000:1365000000.000000:3500500000.000000
GPGPU-Sim uArch: clock periods: 0.00000000073260073260:0.00000000073260073260:0.00000000073260073260:0.00000000028567347522
*** Initializing Memory Statistics ***
GPGPU-Sim uArch: performance model initialization complete.
self exe links to: /home/pars/Documents/sim_5/pr_base
self exe links to: /home/pars/Documents/sim_5/pr_base
11.0
GPGPU-Sim PTX: __cudaRegisterFatBinary, fat_cubin_handle = 1, filename=default
self exe links to: /home/pars/Documents/sim_5/pr_base
Running md5sum using "md5sum /home/pars/Documents/sim_5/pr_base "
self exe links to: /home/pars/Documents/sim_5/pr_base
Extracting specific PTX file named pr_base.1.sm_75.ptx 
GPGPU-Sim PTX: __cudaRegisterFunction _ZN3cub11EmptyKernelIvEEvv : hostFun 0x0x55c55f1e6b52, fat_cubin_handle = 1
GPGPU-Sim PTX: Parsing pr_base.1.sm_75.ptx
GPGPU-Sim PTX: allocating global region for "_ZN37_INTERNAL_61f75dc7_7_base_cu_297024296thrust6system6detail10sequential3seqE" from 0x100 to 0x101 (global memory space)
GPGPU-Sim PTX: allocating global region for "_ZN37_INTERNAL_61f75dc7_7_base_cu_297024296thrust12placeholders2_1E" from 0x101 to 0x102 (global memory space)
GPGPU-Sim PTX: allocating global region for "_ZN37_INTERNAL_61f75dc7_7_base_cu_297024296thrust12placeholders2_2E" from 0x102 to 0x103 (global memory space)
GPGPU-Sim PTX: allocating global region for "_ZN37_INTERNAL_61f75dc7_7_base_cu_297024296thrust12placeholders2_3E" from 0x103 to 0x104 (global memory space)
GPGPU-Sim PTX: allocating global region for "_ZN37_INTERNAL_61f75dc7_7_base_cu_297024296thrust12placeholders2_4E" from 0x104 to 0x105 (global memory space)
GPGPU-Sim PTX: allocating global region for "_ZN37_INTERNAL_61f75dc7_7_base_cu_297024296thrust12placeholders2_5E" from 0x105 to 0x106 (global memory space)
GPGPU-Sim PTX: allocating global region for "_ZN37_INTERNAL_61f75dc7_7_base_cu_297024296thrust12placeholders2_6E" from 0x106 to 0x107 (global memory space)
GPGPU-Sim PTX: allocating global region for "_ZN37_INTERNAL_61f75dc7_7_base_cu_297024296thrust12placeholders2_7E" from 0x107 to 0x108 (global memory space)
GPGPU-Sim PTX: allocating global region for "_ZN37_INTERNAL_61f75dc7_7_base_cu_297024296thrust12placeholders2_8E" from 0x108 to 0x109 (global memory space)
GPGPU-Sim PTX: allocating global region for "_ZN37_INTERNAL_61f75dc7_7_base_cu_297024296thrust12placeholders2_9E" from 0x109 to 0x10a (global memory space)
GPGPU-Sim PTX: allocating global region for "_ZN37_INTERNAL_61f75dc7_7_base_cu_297024296thrust12placeholders3_10E" from 0x10a to 0x10b (global memory space)
GPGPU-Sim PTX: instruction assembly for function '_Z7contribiPfPiS_'...   done.
GPGPU-Sim PTX: Warning -- ignoring pragma 'nounroll'
GPGPU-Sim PTX: instruction assembly for function '_Z9pull_stepiPKmPKiPfS3_'...   done.
GPGPU-Sim PTX: allocating shared region for "_ZZ6l1normiPfS_S_fE12temp_storage" from 0x0 to 0x2c (shared memory space)
GPGPU-Sim PTX: instruction assembly for function '_Z6l1normiPfS_S_f'...   done.
GPGPU-Sim PTX: allocating shared region for "_ZZ10pull_fusediPKmPKiPfS3_S3_fE12temp_storage" from 0x0 to 0x2c (shared memory space)
GPGPU-Sim PTX: Warning -- ignoring pragma 'nounroll'
GPGPU-Sim PTX: instruction assembly for function '_Z10pull_fusediPKmPKiPfS3_S3_f'...   done.
GPGPU-Sim PTX: instruction assembly for function '_ZN3cub11EmptyKernelIvEEvv'...   done.
GPGPU-Sim PTX: finished parsing EMBEDDED .ptx file pr_base.1.sm_75.ptx
GPGPU-Sim PTX: loading globals with explicit initializers... 
GPGPU-Sim PTX: finished loading globals (0 bytes total).
GPGPU-Sim PTX: loading constants with explicit initializers...  done.
GPGPU-Sim PTX: Loading PTXInfo from pr_base.1.sm_75.ptx
GPGPU-Sim PTX: Kernel '_ZN3cub11EmptyKernelIvEEvv' : regs=4, lmem=0, smem=0, cmem=352
GPGPU-Sim PTX: Kernel '_Z10pull_fusediPKmPKiPfS3_S3_f' : regs=44, lmem=0, smem=44, cmem=404
GPGPU-Sim PTX: Kernel '_Z6l1normiPfS_S_f' : regs=18, lmem=0, smem=44, cmem=388
GPGPU-Sim PTX: Kernel '_Z9pull_stepiPKmPKiPfS3_' : regs=43, lmem=0, smem=0, cmem=392
GPGPU-Sim PTX: Kernel '_Z7contribiPfPiS_' : regs=15, lmem=0, smem=0, cmem=384
GPGPU-Sim PTX: __cudaRegisterFunction _Z10pull_fusediPKmPKiPfS3_S3_f : hostFun 0x0x55c55f1e623f, fat_cubin_handle = 1
GPGPU-Sim PTX: __cudaRegisterFunction _Z6l1normiPfS_S_f : hostFun 0x0x55c55f1e6035, fat_cubin_handle = 1
GPGPU-Sim PTX: __cudaRegisterFunction _Z9pull_stepiPKmPKiPfS3_ : hostFun 0x0x55c55f1e5e77, fat_cubin_handle = 1
GPGPU-Sim PTX: __cudaRegisterFunction _Z7contribiPfPiS_ : hostFun 0x0x55c55f1e5cbc, fat_cubin_handle = 1
GPGPU-Sim PTX: __cudaRegisterVar: hostVar = 0x55c55f1ed24d; deviceAddress = _ZN37_INTERNAL_61f75dc7_7_base_cu_297024296thrust6system6detail10sequential3seqE; deviceName = _ZN37_INTERNAL_61f75dc7_7_base_cu_297024296thrust6system6detail10sequential3seqE
GPGPU-Sim PTX: __cudaRegisterVar: Registering const memory space of 1 bytes
GPGPU-Sim PTX registering global _ZN37_INTERNAL_61f75dc7_7_base_cu_297024296thrust6system6detail10sequential3seqE hostVar to name mapping
GPGPU-Sim PTX: __cudaRegisterVar: hostVar = 0x55c55f1ed388; deviceAddress = _ZN37_INTERNAL_61f75dc7_7_base_cu_297024296thrust12placeholders2_1E; deviceName = _ZN37_INTERNAL_61f75dc7_7_base_cu_297024296thrust12placeholders2_1E
GPGPU-Sim PTX: __cudaRegisterVar: Registering const memory space of 1 bytes
GPGPU-Sim PTX registering global _ZN37_INTERNAL_61f75dc7_7_base_cu_297024296thrust12placeholders2_1E hostVar to name mapping
GPGPU-Sim PTX: __cudaRegisterVar: hostVar = 0x55c55f1ed389; deviceAddress = _ZN37_INTERNAL_61f75dc7_7_base_cu_297024296thrust12placeholders2_2E; deviceName = _ZN37_INTERNAL_61f75dc7_7_base_cu_297024296thrust12placeholders2_2E
GPGPU-Sim PTX: __cudaRegisterVar: Registering const memory space of 1 bytes
GPGPU-Sim PTX registering global _ZN37_INTERNAL_61f75dc7_7_base_cu_297024296thrust12placeholders2_2E hostVar to name mapping
GPGPU-Sim PTX: __cudaRegisterVar: hostVar = 0x55c55f1ed38a; deviceAddress = _ZN37_INTERNAL_61f75dc7_7_base_cu_297024296thrust12placeholders2_3E; deviceName = _ZN37_INTERNAL_61f75dc7_7_base_cu_297024296thrust12placeholders2_3E
GPGPU-Sim PTX: __cudaRegisterVar: Registering const memory space of 1 bytes
GPGPU-Sim PTX registering global _ZN37_INTERNAL_61f75dc7_7_base_cu_297024296thrust12placeholders2_3E hostVar to name mapping
GPGPU-Sim PTX: __cudaRegisterVar: hostVar = 0x55c55f1ed38b; deviceAddress = _ZN37_INTERNAL_61f75dc7_7_base_cu_297024296thrust12placeholders2_4E; deviceName = _ZN37_INTERNAL_61f75dc7_7_base_cu_297024296thrust12placeholders2_4E
GPGPU-Sim PTX: __cudaRegisterVar: Registering const memory space of 1 bytes
GPGPU-Sim PTX registering global _ZN37_INTERNAL_61f75dc7_7_base_cu_297024296thrust12placeholders2_4E hostVar to name mapping
GPGPU-Sim PTX: __cudaRegisterVar: hostVar = 0x55c55f1ed38c; deviceAddress = _ZN37_INTERNAL_61f75dc7_7_base_cu_297024296thrust12placeholders2_5E; deviceName = _ZN37_INTERNAL_61f75dc7_7_base_cu_297024296thrust12placeholders2_5E
GPGPU-Sim PTX: __cudaRegisterVar: Registering const memory space of 1 bytes
GPGPU-Sim PTX registering global _ZN37_INTERNAL_61f75dc7_7_base_cu_297024296thrust12placeholders2_5E hostVar to name mapping
GPGPU-Sim PTX: __cudaRegisterVar: hostVar = 0x55c55f1ed38d; deviceAddress = _ZN37_INTERNAL_61f75dc7_7_base_cu_297024296thrust12placeholders2_6E; deviceName = _ZN37_INTERNAL_61f75dc7_7_base_cu_297024296thrust12placeholders2_6E
GPGPU-Sim PTX: __cudaRegisterVar: Registering const memory space of 1 bytes
GPGPU-Sim PTX registering global _ZN37_INTERNAL_61f75dc7_7_base_cu_297024296thrust12placeholders2_6E hostVar to name mapping
GPGPU-Sim PTX: __cudaRegisterVar: hostVar = 0x55c55f1ed38e; deviceAddress = _ZN37_INTERNAL_61f75dc7_7_base_cu_297024296thrust12placeholders2_7E; deviceName = _ZN37_INTERNAL_61f75dc7_7_base_cu_297024296thrust12placeholders2_7E
GPGPU-Sim PTX: __cudaRegisterVar: Registering const memory space of 1 bytes
GPGPU-Sim PTX registering global _ZN37_INTERNAL_61f75dc7_7_base_cu_297024296thrust12placeholders2_7E hostVar to name mapping
GPGPU-Sim PTX: __cudaRegisterVar: hostVar = 0x55c55f1ed38f; deviceAddress = _ZN37_INTERNAL_61f75dc7_7_base_cu_297024296thrust12placeholders2_8E; deviceName = _ZN37_INTERNAL_61f75dc7_7_base_cu_297024296thrust12placeholders2_8E
GPGPU-Sim PTX: __cudaRegisterVar: Registering const memory space of 1 bytes
GPGPU-Sim PTX registering global _ZN37_INTERNAL_61f75dc7_7_base_cu_297024296thrust12placeholders2_8E hostVar to name mapping
GPGPU-Sim PTX: __cudaRegisterVar: hostVar = 0x55c55f1ed390; deviceAddress = _ZN37_INTERNAL_61f75dc7_7_base_cu_297024296thrust12placeholders2_9E; deviceName = _ZN37_INTERNAL_61f75dc7_7_base_cu_297024296thrust12placeholders2_9E
GPGPU-Sim PTX: __cudaRegisterVar: Registering const memory space of 1 bytes
GPGPU-Sim PTX registering global _ZN37_INTERNAL_61f75dc7_7_base_cu_297024296thrust12placeholders2_9E hostVar to name mapping
GPGPU-Sim PTX: __cudaRegisterVar: hostVar = 0x55c55f1ed391; deviceAddress = _ZN37_INTERNAL_61f75dc7_7_base_cu_297024296thrust12placeholders3_10E; deviceName = _ZN37_INTERNAL_61f75dc7_7_base_cu_297024296thrust12placeholders3_10E
GPGPU-Sim PTX: __cudaRegisterVar: Registering const memory space of 1 bytes
GPGPU-Sim PTX registering global _ZN37_INTERNAL_61f75dc7_7_base_cu_297024296thrust12placeholders3_10E hostVar to name mapping
PageRank by Xuhao Chen
Reading (.mtx) input file ../CudaBenchmarks/gardenia/datasets/web-NotreDame.mtx
Removing redundent edges... 0 redundent edges are removed
|V| 325729 |E| 1469679
This graph maintains both incomming and outgoing edge-list
Launching CUDA PR solver (1273 CTAs, 256 threads/CTA) ...
GPGPU-Sim PTX: Setting up arguments for 4 bytes starting at 0x7ffd372984bc..
GPGPU-Sim PTX: Setting up arguments for 8 bytes starting at 0x7ffd372984b0..
GPGPU-Sim PTX: Setting up arguments for 8 bytes starting at 0x7ffd372984a8..
GPGPU-Sim PTX: Setting up arguments for 8 bytes starting at 0x7ffd372984a0..

GPGPU-Sim PTX: cudaLaunch for 0x0x55c55f1e5cbc (mode=performance simulation) on stream 0
GPGPU-Sim PTX: finding reconvergence points for '_Z7contribiPfPiS_'...
GPGPU-Sim PTX: Finding dominators for '_Z7contribiPfPiS_'...
GPGPU-Sim PTX: Finding immediate dominators for '_Z7contribiPfPiS_'...
GPGPU-Sim PTX: Finding postdominators for '_Z7contribiPfPiS_'...
GPGPU-Sim PTX: Finding immediate postdominators for '_Z7contribiPfPiS_'...
GPGPU-Sim PTX: pre-decoding instructions for '_Z7contribiPfPiS_'...
GPGPU-Sim PTX: reconvergence points for _Z7contribiPfPiS_...
GPGPU-Sim PTX:  1 (potential) branch divergence @  PC=0x048 (pr_base.1.sm_75.ptx:50) @%p1 bra $L__BB0_2;

GPGPU-Sim PTX:    immediate post dominator      @  PC=0x0b0 (pr_base.1.sm_75.ptx:66) ret;

GPGPU-Sim PTX: ... end of reconvergence points for _Z7contribiPfPiS_
GPGPU-Sim PTX: ... done pre-decoding instructions for '_Z7contribiPfPiS_'.
GPGPU-Sim PTX: pushing kernel '_Z7contribiPfPiS_' to stream 0, gridDim= (1273,1,1) blockDim = (256,1,1) 
GPGPU-Sim uArch: Shader 0 bind to kernel 1 '_Z7contribiPfPiS_'
GPGPU-Sim uArch: CTA/core = 4, limited by: threads
GPGPU-Sim: Reconfigure L1 cache to 64KB
GPGPU-Sim uArch: Shader 1 bind to kernel 1 '_Z7contribiPfPiS_'
GPGPU-Sim uArch: Shader 2 bind to kernel 1 '_Z7contribiPfPiS_'
GPGPU-Sim uArch: Shader 3 bind to kernel 1 '_Z7contribiPfPiS_'
GPGPU-Sim uArch: Shader 4 bind to kernel 1 '_Z7contribiPfPiS_'
GPGPU-Sim uArch: Shader 5 bind to kernel 1 '_Z7contribiPfPiS_'
GPGPU-Sim uArch: Shader 6 bind to kernel 1 '_Z7contribiPfPiS_'
GPGPU-Sim uArch: Shader 7 bind to kernel 1 '_Z7contribiPfPiS_'
GPGPU-Sim uArch: Shader 8 bind to kernel 1 '_Z7contribiPfPiS_'
GPGPU-Sim uArch: Shader 9 bind to kernel 1 '_Z7contribiPfPiS_'
GPGPU-Sim uArch: Shader 10 bind to kernel 1 '_Z7contribiPfPiS_'
GPGPU-Sim uArch: Shader 11 bind to kernel 1 '_Z7contribiPfPiS_'
GPGPU-Sim uArch: Shader 12 bind to kernel 1 '_Z7contribiPfPiS_'
GPGPU-Sim uArch: Shader 13 bind to kernel 1 '_Z7contribiPfPiS_'
GPGPU-Sim uArch: Shader 14 bind to kernel 1 '_Z7contribiPfPiS_'
GPGPU-Sim uArch: Shader 15 bind to kernel 1 '_Z7contribiPfPiS_'
GPGPU-Sim uArch: Shader 16 bind to kernel 1 '_Z7contribiPfPiS_'
GPGPU-Sim uArch: Shader 17 bind to kernel 1 '_Z7contribiPfPiS_'
GPGPU-Sim uArch: Shader 18 bind to kernel 1 '_Z7contribiPfPiS_'
GPGPU-Sim uArch: Shader 19 bind to kernel 1 '_Z7contribiPfPiS_'
GPGPU-Sim uArch: Shader 20 bind to kernel 1 '_Z7contribiPfPiS_'
GPGPU-Sim uArch: Shader 21 bind to kernel 1 '_Z7contribiPfPiS_'
GPGPU-Sim uArch: Shader 22 bind to kernel 1 '_Z7contribiPfPiS_'
GPGPU-Sim uArch: Shader 23 bind to kernel 1 '_Z7contribiPfPiS_'
GPGPU-Sim uArch: Shader 24 bind to kernel 1 '_Z7contribiPfPiS_'
GPGPU-Sim uArch: Shader 25 bind to kernel 1 '_Z7contribiPfPiS_'
GPGPU-Sim uArch: Shader 26 bind to kernel 1 '_Z7contribiPfPiS_'
GPGPU-Sim uArch: Shader 27 bind to kernel 1 '_Z7contribiPfPiS_'
GPGPU-Sim uArch: Shader 28 bind to kernel 1 '_Z7contribiPfPiS_'
GPGPU-Sim uArch: Shader 29 bind to kernel 1 '_Z7contribiPfPiS_'
Destroy streams for kernel 1: size 0
kernel_name = _Z7contribiPfPiS_ 
kernel_launch_uid = 1 
gpu_sim_cycle = 19684
gpu_sim_insn = 7167787
gpu_ipc =     364.1428
gpu_tot_sim_cycle = 19684
gpu_tot_sim_insn = 7167787
gpu_tot_ipc =     364.1428
gpu_tot_issued_cta = 1273
gpu_occupancy = 90.7371% 
gpu_tot_occupancy = 90.7371% 
max_total_param_size = 0
gpu_stall_dramfull = 0
gpu_stall_icnt2sh    = 0
partiton_level_parallism =       6.2056
partiton_level_parallism_total  =       6.2056
partiton_level_parallism_util =       8.8682
partiton_level_parallism_util_total  =       8.8682
L2_BW  =     271.0605 GB/Sec
L2_BW_total  =     271.0605 GB/Sec
gpu_total_sim_rate=47156

========= Core cache stats =========
L1I_cache:
	L1I_total_cache_accesses = 0
	L1I_total_cache_misses = 0
	L1I_total_cache_pending_hits = 0
	L1I_total_cache_reservation_fails = 0
L1D_cache:
	L1D_cache_core[0]: Access = 4224, Miss = 4224, Miss_rate = 1.000, Pending_hits = 0, Reservation_fails = 1683
	L1D_cache_core[1]: Access = 3936, Miss = 3936, Miss_rate = 1.000, Pending_hits = 0, Reservation_fails = 1835
	L1D_cache_core[2]: Access = 3840, Miss = 3840, Miss_rate = 1.000, Pending_hits = 0, Reservation_fails = 2106
	L1D_cache_core[3]: Access = 3840, Miss = 3840, Miss_rate = 1.000, Pending_hits = 0, Reservation_fails = 2223
	L1D_cache_core[4]: Access = 4224, Miss = 4224, Miss_rate = 1.000, Pending_hits = 0, Reservation_fails = 2147
	L1D_cache_core[5]: Access = 4320, Miss = 4320, Miss_rate = 1.000, Pending_hits = 0, Reservation_fails = 2120
	L1D_cache_core[6]: Access = 4071, Miss = 4071, Miss_rate = 1.000, Pending_hits = 0, Reservation_fails = 2052
	L1D_cache_core[7]: Access = 4032, Miss = 4032, Miss_rate = 1.000, Pending_hits = 0, Reservation_fails = 2008
	L1D_cache_core[8]: Access = 4320, Miss = 4320, Miss_rate = 1.000, Pending_hits = 0, Reservation_fails = 1987
	L1D_cache_core[9]: Access = 4320, Miss = 4320, Miss_rate = 1.000, Pending_hits = 0, Reservation_fails = 2186
	L1D_cache_core[10]: Access = 4224, Miss = 4224, Miss_rate = 1.000, Pending_hits = 0, Reservation_fails = 2425
	L1D_cache_core[11]: Access = 4224, Miss = 4224, Miss_rate = 1.000, Pending_hits = 0, Reservation_fails = 1723
	L1D_cache_core[12]: Access = 3840, Miss = 3840, Miss_rate = 1.000, Pending_hits = 0, Reservation_fails = 1915
	L1D_cache_core[13]: Access = 4224, Miss = 4224, Miss_rate = 1.000, Pending_hits = 0, Reservation_fails = 1732
	L1D_cache_core[14]: Access = 4224, Miss = 4224, Miss_rate = 1.000, Pending_hits = 0, Reservation_fails = 1841
	L1D_cache_core[15]: Access = 3936, Miss = 3936, Miss_rate = 1.000, Pending_hits = 0, Reservation_fails = 1932
	L1D_cache_core[16]: Access = 4320, Miss = 4320, Miss_rate = 1.000, Pending_hits = 0, Reservation_fails = 1761
	L1D_cache_core[17]: Access = 3936, Miss = 3936, Miss_rate = 1.000, Pending_hits = 0, Reservation_fails = 1838
	L1D_cache_core[18]: Access = 4032, Miss = 4032, Miss_rate = 1.000, Pending_hits = 0, Reservation_fails = 1863
	L1D_cache_core[19]: Access = 4032, Miss = 4032, Miss_rate = 1.000, Pending_hits = 0, Reservation_fails = 1937
	L1D_cache_core[20]: Access = 4224, Miss = 4224, Miss_rate = 1.000, Pending_hits = 0, Reservation_fails = 1562
	L1D_cache_core[21]: Access = 4032, Miss = 4032, Miss_rate = 1.000, Pending_hits = 0, Reservation_fails = 1771
	L1D_cache_core[22]: Access = 4032, Miss = 4032, Miss_rate = 1.000, Pending_hits = 0, Reservation_fails = 2080
	L1D_cache_core[23]: Access = 3936, Miss = 3936, Miss_rate = 1.000, Pending_hits = 0, Reservation_fails = 2039
	L1D_cache_core[24]: Access = 4128, Miss = 4128, Miss_rate = 1.000, Pending_hits = 0, Reservation_fails = 2093
	L1D_cache_core[25]: Access = 4032, Miss = 4032, Miss_rate = 1.000, Pending_hits = 0, Reservation_fails = 1735
	L1D_cache_core[26]: Access = 3936, Miss = 3936, Miss_rate = 1.000, Pending_hits = 0, Reservation_fails = 1878
	L1D_cache_core[27]: Access = 4032, Miss = 4032, Miss_rate = 1.000, Pending_hits = 0, Reservation_fails = 1853
	L1D_cache_core[28]: Access = 3840, Miss = 3840, Miss_rate = 1.000, Pending_hits = 0, Reservation_fails = 2141
	L1D_cache_core[29]: Access = 3840, Miss = 3840, Miss_rate = 1.000, Pending_hits = 0, Reservation_fails = 2173
	L1D_total_cache_accesses = 122151
	L1D_total_cache_misses = 122151
	L1D_total_cache_miss_rate = 1.0000
	L1D_total_cache_pending_hits = 0
	L1D_total_cache_reservation_fails = 58639
	L1D_cache_data_port_util = 0.000
	L1D_cache_fill_port_util = 0.187
L1C_cache:
	L1C_total_cache_accesses = 0
	L1C_total_cache_misses = 0
	L1C_total_cache_pending_hits = 0
	L1C_total_cache_reservation_fails = 0
L1T_cache:
	L1T_total_cache_accesses = 0
	L1T_total_cache_misses = 0
	L1T_total_cache_pending_hits = 0
	L1T_total_cache_reservation_fails = 0

Total_core_cache_stats:
	Total_core_cache_stats_breakdown[GLOBAL_ACC_R][HIT] = 0
	Total_core_cache_stats_breakdown[GLOBAL_ACC_R][HIT_RESERVED] = 0
	Total_core_cache_stats_breakdown[GLOBAL_ACC_R][MISS] = 20360
	Total_core_cache_stats_breakdown[GLOBAL_ACC_R][RESERVATION_FAIL] = 53896
	Total_core_cache_stats_breakdown[GLOBAL_ACC_R][SECTOR_MISS] = 61074
	Total_core_cache_stats_breakdown[GLOBAL_ACC_R][MSHR_HIT] = 0
	Total_core_cache_stats_breakdown[LOCAL_ACC_R][HIT] = 0
	Total_core_cache_stats_breakdown[LOCAL_ACC_R][HIT_RESERVED] = 0
	Total_core_cache_stats_breakdown[LOCAL_ACC_R][MISS] = 0
	Total_core_cache_stats_breakdown[LOCAL_ACC_R][RESERVATION_FAIL] = 0
	Total_core_cache_stats_breakdown[LOCAL_ACC_R][SECTOR_MISS] = 0
	Total_core_cache_stats_breakdown[LOCAL_ACC_R][MSHR_HIT] = 0
	Total_core_cache_stats_breakdown[CONST_ACC_R][HIT] = 0
	Total_core_cache_stats_breakdown[CONST_ACC_R][HIT_RESERVED] = 0
	Total_core_cache_stats_breakdown[CONST_ACC_R][MISS] = 0
	Total_core_cache_stats_breakdown[CONST_ACC_R][RESERVATION_FAIL] = 0
	Total_core_cache_stats_breakdown[CONST_ACC_R][SECTOR_MISS] = 0
	Total_core_cache_stats_breakdown[CONST_ACC_R][MSHR_HIT] = 0
	Total_core_cache_stats_breakdown[TEXTURE_ACC_R][HIT] = 0
	Total_core_cache_stats_breakdown[TEXTURE_ACC_R][HIT_RESERVED] = 0
	Total_core_cache_stats_breakdown[TEXTURE_ACC_R][MISS] = 0
	Total_core_cache_stats_breakdown[TEXTURE_ACC_R][RESERVATION_FAIL] = 0
	Total_core_cache_stats_breakdown[TEXTURE_ACC_R][SECTOR_MISS] = 0
	Total_core_cache_stats_breakdown[TEXTURE_ACC_R][MSHR_HIT] = 0
	Total_core_cache_stats_breakdown[GLOBAL_ACC_W][HIT] = 0
	Total_core_cache_stats_breakdown[GLOBAL_ACC_W][HIT_RESERVED] = 0
	Total_core_cache_stats_breakdown[GLOBAL_ACC_W][MISS] = 10180
	Total_core_cache_stats_breakdown[GLOBAL_ACC_W][RESERVATION_FAIL] = 4743
	Total_core_cache_stats_breakdown[GLOBAL_ACC_W][SECTOR_MISS] = 30537
	Total_core_cache_stats_breakdown[GLOBAL_ACC_W][MSHR_HIT] = 0
	Total_core_cache_stats_breakdown[LOCAL_ACC_W][HIT] = 0
	Total_core_cache_stats_breakdown[LOCAL_ACC_W][HIT_RESERVED] = 0
	Total_core_cache_stats_breakdown[LOCAL_ACC_W][MISS] = 0
	Total_core_cache_stats_breakdown[LOCAL_ACC_W][RESERVATION_FAIL] = 0
	Total_core_cache_stats_breakdown[LOCAL_ACC_W][SECTOR_MISS] = 0
	Total_core_cache_stats_breakdown[LOCAL_ACC_W][MSHR_HIT] = 0
	Total_core_cache_stats_breakdown[L1_WRBK_ACC][HIT] = 0
	Total_core_cache_stats_breakdown[L1_WRBK_ACC][HIT_RESERVED] = 0
	Total_core_cache_stats_breakdown[L1_WRBK_ACC][MISS] = 0
	Total_core_cache_stats_breakdown[L1_WRBK_ACC][RESERVATION_FAIL] = 0
	Total_core_cache_stats_breakdown[L1_WRBK_ACC][SECTOR_MISS] = 0
	Total_core_cache_stats_breakdown[L1_WRBK_ACC][MSHR_HIT] = 0
	Total_core_cache_stats_breakdown[L2_WRBK_ACC][HIT] = 0
	Total_core_cache_stats_breakdown[L2_WRBK_ACC][HIT_RESERVED] = 0
	Total_core_cache_stats_breakdown[L2_WRBK_ACC][MISS] = 0
	Total_core_cache_stats_breakdown[L2_WRBK_ACC][RESERVATION_FAIL] = 0
	Total_core_cache_stats_breakdown[L2_WRBK_ACC][SECTOR_MISS] = 0
	Total_core_cache_stats_breakdown[L2_WRBK_ACC][MSHR_HIT] = 0
	Total_core_cache_stats_breakdown[INST_ACC_R][HIT] = 0
	Total_core_cache_stats_breakdown[INST_ACC_R][HIT_RESERVED] = 0
	Total_core_cache_stats_breakdown[INST_ACC_R][MISS] = 0
	Total_core_cache_stats_breakdown[INST_ACC_R][RESERVATION_FAIL] = 0
	Total_core_cache_stats_breakdown[INST_ACC_R][SECTOR_MISS] = 0
	Total_core_cache_stats_breakdown[INST_ACC_R][MSHR_HIT] = 0
	Total_core_cache_stats_breakdown[L1_WR_ALLOC_R][HIT] = 0
	Total_core_cache_stats_breakdown[L1_WR_ALLOC_R][HIT_RESERVED] = 0
	Total_core_cache_stats_breakdown[L1_WR_ALLOC_R][MISS] = 0
	Total_core_cache_stats_breakdown[L1_WR_ALLOC_R][RESERVATION_FAIL] = 0
	Total_core_cache_stats_breakdown[L1_WR_ALLOC_R][SECTOR_MISS] = 0
	Total_core_cache_stats_breakdown[L1_WR_ALLOC_R][MSHR_HIT] = 0
	Total_core_cache_stats_breakdown[L2_WR_ALLOC_R][HIT] = 0
	Total_core_cache_stats_breakdown[L2_WR_ALLOC_R][HIT_RESERVED] = 0
	Total_core_cache_stats_breakdown[L2_WR_ALLOC_R][MISS] = 0
	Total_core_cache_stats_breakdown[L2_WR_ALLOC_R][RESERVATION_FAIL] = 0
	Total_core_cache_stats_breakdown[L2_WR_ALLOC_R][SECTOR_MISS] = 0
	Total_core_cache_stats_breakdown[L2_WR_ALLOC_R][MSHR_HIT] = 0
	Total_core_cache_stats_breakdown[GLOBAL_ACC_R][TOTAL_ACCESS] = 81434
	Total_core_cache_stats_breakdown[GLOBAL_ACC_W][TOTAL_ACCESS] = 40717

Total_core_cache_fail_stats:
	Total_core_cache_fail_stats_breakdown[GLOBAL_ACC_R][MISS_QUEUE_FULL] = 53896
	Total_core_cache_fail_stats_breakdown[GLOBAL_ACC_W][MISS_QUEUE_FULL] = 4743
ctas_completed 1273, Shader 0 warp_id issue ditsribution:
warp_id:
0, 1, 2, 3, 4, 5, 6, 7, 8, 9, 10, 11, 12, 13, 14, 15, 16, 17, 18, 19, 20, 21, 22, 23, 24, 25, 26, 27, 28, 29, 30, 31, 
distro:
253, 253, 253, 253, 253, 253, 253, 253, 253, 253, 253, 253, 253, 253, 253, 253, 253, 253, 253, 253, 253, 253, 253, 253, 253, 253, 253, 253, 253, 253, 253, 253, 
gpgpu_n_tot_thrd_icount = 7493888
gpgpu_n_tot_w_icount = 234184
gpgpu_n_stall_shd_mem = 0
gpgpu_n_mem_read_local = 0
gpgpu_n_mem_write_local = 0
gpgpu_n_mem_read_global = 81434
gpgpu_n_mem_write_global = 40717
gpgpu_n_mem_texture = 0
gpgpu_n_mem_const = 0
gpgpu_n_load_insn  = 651458
gpgpu_n_store_insn = 325729
gpgpu_n_shmem_insn = 0
gpgpu_n_sstarr_insn = 0
gpgpu_n_tex_insn = 0
gpgpu_n_const_mem_insn = 0
gpgpu_n_param_mem_insn = 1303552
gpgpu_n_shmem_bkconflict = 0
gpgpu_n_cache_bkconflict = 0
gpgpu_n_intrawarp_mshr_merge = 0
gpgpu_n_cmem_portconflict = 0
gpgpu_stall_shd_mem[c_mem][resource_stall] = 0
gpgpu_stall_shd_mem[s_mem][bk_conf] = 0
gpgpu_stall_shd_mem[gl_mem][resource_stall] = 0
gpgpu_stall_shd_mem[gl_mem][coal_stall] = 0
gpgpu_stall_shd_mem[gl_mem][data_port_stall] = 0
gpu_reg_bank_conflict_stalls = 0
Warp Occupancy Distribution:
Stall:125880	W0_Idle:189604	W0_Scoreboard:1190476	W1:12	W2:0	W3:0	W4:0	W5:0	W6:0	W7:0	W8:0	W9:0	W10:0	W11:0	W12:0	W13:0	W14:0	W15:0	W16:0	W17:0	W18:0	W19:0	W20:0	W21:0	W22:0	W23:0	W24:0	W25:0	W26:0	W27:0	W28:0	W29:0	W30:0	W31:0	W32:234172
single_issue_nums: WS0:58546	WS1:58546	WS2:58546	WS3:58546	
dual_issue_nums: WS0:0	WS1:0	WS2:0	WS3:0	
traffic_breakdown_coretomem[GLOBAL_ACC_R] = 651472 {8:81434,}
traffic_breakdown_coretomem[GLOBAL_ACC_W] = 1628680 {40:40717,}
traffic_breakdown_memtocore[GLOBAL_ACC_R] = 3257360 {40:81434,}
traffic_breakdown_memtocore[GLOBAL_ACC_W] = 325736 {8:40717,}
maxmflatency = 902 
max_icnt2mem_latency = 446 
maxmrqlatency = 463 
max_icnt2sh_latency = 141 
averagemflatency = 325 
avg_icnt2mem_latency = 77 
avg_mrq_latency = 35 
avg_icnt2sh_latency = 16 
mrq_lat_table:10797 	2086 	2651 	3011 	3053 	3193 	3072 	2131 	508 	0 	0 	0 	0 	0 	0 	0 	0 	0 	0 	0 	0 	0 	0 	0 	0 	0 	0 	0 	0 	0 	0 	0 	
dq_lat_table:0 	0 	0 	0 	0 	0 	0 	0 	0 	0 	0 	0 	0 	0 	0 	0 	0 	0 	0 	0 	0 	0 	0 	0 	0 	0 	0 	0 	0 	0 	0 	0 	
mf_lat_table:0 	0 	0 	0 	0 	0 	0 	33348 	83110 	5693 	0 	0 	0 	0 	0 	0 	0 	0 	0 	0 	0 	0 	0 	0 	0 	0 	0 	0 	0 	0 	0 	0 	
icnt2mem_lat_table:0 	0 	0 	0 	0 	80401 	28004 	7044 	6702 	0 	0 	0 	0 	0 	0 	0 	0 	0 	0 	0 	0 	0 	0 	0 	
icnt2sh_lat_table:0 	44062 	20794 	17130 	17885 	16945 	5256 	79 	0 	0 	0 	0 	0 	0 	0 	0 	0 	0 	0 	0 	0 	0 	0 	0 	
mf_lat_pw_table:0 	0 	0 	0 	0 	0 	0 	15 	121 	3 	0 	0 	0 	0 	0 	0 	0 	0 	0 	0 	0 	0 	0 	0 	0 	0 	0 	0 	0 	0 	0 	0 	
maximum concurrent accesses to same row:
dram[0]:        64        64        64        64        44        44        64        64        60        48        64        64        64        64        64        64 
dram[1]:        64        64        64        64        44        44        64        64        60        40        64        64        64        64        64        64 
dram[2]:        64        64        64        64        44        44        64        64        48        60        64        64        64        64        64        64 
dram[3]:        64        64        64        64        44        44        64        64        64        44        64        64        64        64        64        64 
dram[4]:        64        64        64        64        40        40        64        64        40        60        64        64        64        64        64        64 
dram[5]:        64        64        64        64        40        40        64        64        60        60        64        64        64        64        64        64 
dram[6]:        64        64        64        64        40        40        64        64        48        56        64        64        64        64        64        64 
dram[7]:        64        64        64        64        40        40        64        64        44        40        64        64        64        64        64        64 
dram[8]:        64        64        64        64        40        40        64        64        48        44        64        64        64        64        64        64 
dram[9]:        64        64        64        64        40        40        64        64        36        60        64        64        64        64        64        64 
dram[10]:        64        64        64        64        40        40        64        64        52        52        64        64        64        64        64        64 
dram[11]:        64        64        64        64        40        40        64        64        56        52        64        64        64        64        64        64 
maximum service time to same row:
dram[0]:     15140     15144     14958     14918     12460     12470     12761     12763     16115     16114     13782     13774     14155     14162     11135     11147 
dram[1]:     15148     15153     14954     14945     12473     12492     12780     12758     16103     16128     13787     13789     14167     14170     11140     11168 
dram[2]:     15162     15162     14938     14982     12487     12492     12773     12767     16013     15954     13792     13789     11008     11011     11154     11150 
dram[3]:     15159     15162     14980     14981     12490     12492     12767     12768     16025     16004     13790     13791     11035     14178     11157     11160 
dram[4]:     15145     15149     14997     15002     12536     12526     12752     12724     16140     16107     13804     13821     14152     14139     11092     11074 
dram[5]:     15154     15158     14988     14992     12532     12540     12732     12743     16122     16118     13820     13827     14153     14151     11079     11095 
dram[6]:     14815     14734     15031     15022     12544     12547     12755     12757     16094     16106     13817     13812     11026     11039     11098     11101 
dram[7]:     15166     14733     15027     15017     12547     12547     12757     12737     16101     16113     13807     13821     11041     11040     11101     11101 
dram[8]:     15180     14790     11752     15051     12528     12532     12737     12721     16130     16135     13814     13792     11060     11064     11151     11157 
dram[9]:     14790     15179     15036     15044     12536     12542     12728     12731     16120     16124     13782     13786     14137     14136     11147     11173 
dram[10]:     15181     15180     14977     14999     12549     12549     12741     12740     16097     16149     13819     13817     14139     14138     11146     11169 
dram[11]:     15179     15180     15033     15022     12546     12549     12740     12741     16153     16157     13795     13804     14139     14137     11154     11150 
average row accesses per activate:
dram[0]: 36.000000 36.000000 32.500000 32.500000 54.000000 54.000000 60.000000 60.000000 14.100000 12.818182 26.000000 26.000000 23.714285 23.714285 48.000000 48.000000 
dram[1]: 36.000000 24.000000 32.500000 32.500000 54.000000 54.000000 60.000000 60.000000 17.625000 14.100000 26.000000 26.000000 23.714285 23.714285 48.000000 47.250000 
dram[2]: 24.000000 28.799999 32.500000 32.750000 54.000000 54.000000 61.333332 61.333332 17.625000 23.500000 34.666668 34.666668 21.250000 21.375000 47.000000 47.000000 
dram[3]: 24.000000 24.000000 32.750000 32.000000 54.000000 54.000000 61.333332 61.333332 35.250000 14.100000 34.666668 34.666668 21.375000 23.714285 47.000000 47.000000 
dram[4]: 24.000000 24.000000 31.500000 31.500000 52.000000 52.000000 61.333332 61.333332 12.818182 20.142857 26.000000 34.666668 23.714285 23.714285 47.000000 47.000000 
dram[5]: 24.000000 24.000000 31.500000 31.500000 52.000000 52.000000 61.333332 61.333332 20.142857 20.142857 34.666668 52.000000 23.857143 18.444445 47.000000 47.000000 
dram[6]: 24.666666 24.666666 32.500000 32.500000 52.000000 52.000000 61.333332 61.333332 15.777778 20.285715 34.666668 34.666668 18.666666 18.666666 48.000000 48.000000 
dram[7]: 24.000000 21.714285 32.500000 32.500000 52.000000 52.000000 61.333332 61.333332 15.777778 12.909091 34.666668 34.666668 21.250000 21.250000 38.799999 48.000000 
dram[8]: 36.000000 29.600000 26.799999 32.500000 52.000000 52.000000 62.666668 61.333332 15.777778 15.777778 34.666668 34.666668 28.333334 28.333334 48.000000 48.000000 
dram[9]: 21.142857 24.000000 32.500000 32.500000 52.000000 52.000000 61.333332 61.333332 15.777778 20.285715 34.666668 34.666668 20.750000 20.750000 48.000000 48.000000 
dram[10]: 36.000000 28.799999 26.000000 32.500000 52.000000 52.000000 61.333332 61.333332 17.750000 15.777778 34.666668 52.000000 20.750000 21.250000 48.000000 48.000000 
dram[11]: 24.000000 24.000000 32.500000 32.500000 52.000000 52.000000 61.333332 61.333332 20.285715 20.285715 52.000000 26.000000 20.500000 23.428572 48.000000 48.000000 
average row locality = 30502/980 = 31.124491
number of total memory accesses made:
dram[0]:         0         0         0         0         0         0         0         0         0         0         0         0         0         0         0         0 
dram[1]:         0         0         0         0         0         0         0         0         0         0         0         0         0         0         0         0 
dram[2]:         0         0         0         0         0         0         0         0         0         0         0         0         0         0         0         0 
dram[3]:         0         0         0         0         0         0         0         0         0         0         0         0         0         0         0         0 
dram[4]:         0         0         0         0         0         0         0         0         0         0         0         0         0         0         0         0 
dram[5]:         0         0         0         0         0         0         0         0         0         0         0         0         0         0         0         0 
dram[6]:         0         0         0         0         0         0         0         0         0         0         0         0         0         0         0         0 
dram[7]:         0         0         0         0         0         0         0         0         0         0         0         0         0         0         0         0 
dram[8]:         0         0         0         0         0         0         0         0         0         0         0         0         0         0         0         0 
dram[9]:         0         0         0         0         0         0         0         0         0         0         0         0         0         0         0         0 
dram[10]:         0         0         0         0         0         0         0         0         0         0         0         0         0         0         0         0 
dram[11]:         0         0         0         0         0         0         0         0         0         0         0         0         0         0         0         0 
total accesses: 0
min_bank_accesses = 0!
min_chip_accesses = 0!
number of total read accesses:
dram[0]:       128       128       128       128       108       108       180       180       128       128       192       192       152       152       192       192 
dram[1]:       128       128       128       128       108       108       180       180       128       128       192       192       152       152       192       189 
dram[2]:       128       128       128       128       108       108       184       184       128       128       192       192       156       156       188       188 
dram[3]:       128       128       128       125       108       108       184       184       128       128       192       192       156       152       188       188 
dram[4]:       128       128       124       124       104       104       184       184       128       128       192       192       152       152       188       188 
dram[5]:       128       128       124       124       104       104       184       184       128       128       192       192       152       152       188       188 
dram[6]:       132       132       128       128       104       104       184       184       128       128       192       192       156       156       192       192 
dram[7]:       128       136       128       128       104       104       184       184       128       128       192       192       156       156       192       192 
dram[8]:       128       132       132       128       104       104       188       184       128       128       192       192       156       156       192       192 
dram[9]:       132       128       128       128       104       104       184       184       128       128       192       192       152       152       192       192 
dram[10]:       128       128       128       128       104       104       184       184       128       128       192       192       152       156       192       192 
dram[11]:       128       128       128       128       104       104       184       184       128       128       192       192       152       152       192       192 
total dram reads = 29026
bank skew: 192/104 = 1.85
chip skew: 2436/2400 = 1.01
number of total write accesses:
dram[0]:        64        64         8         8         0         0         0         0        52        52        64        64        56        56         0         0 
dram[1]:        64        64         8         8         0         0         0         0        52        52        64        64        56        56         0         0 
dram[2]:        64        64         8        12         0         0         0         0        52        52        64        64        56        60         0         0 
dram[3]:        64        64        12        12         0         0         0         0        52        52        64        64        60        56         0         0 
dram[4]:        64        64         8         8         0         0         0         0        52        52        64        64        56        56         0         0 
dram[5]:        64        64         8         8         0         0         0         0        52        52        64        64        60        56         0         0 
dram[6]:        64        64         8         8         0         0         0         0        56        56        64        64        48        48         0         0 
dram[7]:        64        64         8         8         0         0         0         0        56        56        64        64        56        56         8         0 
dram[8]:        64        64         8         8         0         0         0         0        56        56        64        64        56        56         0         0 
dram[9]:        64        64         8         8         0         0         0         0        56        56        64        64        56        56         0         0 
dram[10]:        64        64         8         8         0         0         0         0        56        56        64        64        56        56         0         0 
dram[11]:        64        64         8         8         0         0         0         0        56        56        64        64        48        48         0         0 
total dram writes = 5904
min_bank_accesses = 0!
chip skew: 504/480 = 1.05
average mf latency per bank:
dram[0]:       1095      1087      1413      1427      1555      1562      1021      1033      1211      1171       961       946      1158      1150      1069      1084
dram[1]:       1093      1104      1400      1433      1545      1566       999      1022      1152      1166       949       968      1183      1197      1090      1123
dram[2]:       1075      1084      1431      1389      1540      1537       997       985      1164      1149       965       968      1142      1116      1131      1116
dram[3]:       1109      1079      1389      1400      1535      1548       988       999      1176      1168       985       962      1110      1140      1130      1109
dram[4]:       1106      1053      1395      1409      1592      1573       988       962      1168      1134       959       945      1144      1129      1114      1118
dram[5]:       1075      1098      1411      1423      1604      1608       993       994      1133      1153       957       977      1151      1187      1122      1116
dram[6]:       1083      1064      1429      1423      1630      1590       999      1003      1172      1150       969       975      1191      1179      1085      1062
dram[7]:       1112      1104      1445      1418      1606      1616      1000       998      1149      1132       992       974      1095      1105      1030      1095
dram[8]:       1097      1026      1383      1420      1616      1631       975      1012      1144      1130       971       946      1103      1103      1076      1077
dram[9]:       1088      1121      1414      1421      1590      1624       960       968      1113      1127       933       951      1122      1136      1067      1083
dram[10]:       1099      1085      1441      1423      1626      1626      1013       978      1186      1146       968       969      1161      1142      1111      1087
dram[11]:       1098      1119      1421      1413      1658      1628      1012       983      1160      1143       966       965      1160      1179      1060      1087
maximum mf latency per bank:
dram[0]:        680       679       506       506       458       453       523       558       687       631       627       638       901       711       596       595
dram[1]:        607       659       513       513       477       456       525       524       629       631       638       640       902       887       590       590
dram[2]:        580       569       513       505       463       460       502       506       635       689       632       638       813       813       596       594
dram[3]:        680       676       506       506       435       442       480       482       629       520       631       632       796       794       601       601
dram[4]:        612       600       506       506       459       443       462       445       591       631       632       631       635       641       596       598
dram[5]:        585       598       519       519       438       458       455       459       633       632       632       635       764       733       590       590
dram[6]:        630       649       513       505       493       494       521       500       646       549       631       634       790       788       596       594
dram[7]:        652       718       506       506       499       487       528       507       520       491       629       631       679       687       601       601
dram[8]:        604       603       506       506       501       508       494       512       591       628       631       641       684       682       596       595
dram[9]:        666       646       520       520       470       484       474       474       627       626       639       640       688       688       590       590
dram[10]:        550       562       519       527       541       510       525       530       637       538       629       631       714       715       596       594
dram[11]:        685       685       506       506       528       514       534       469       585       522       629       628       821       663       601       601

Number of Memory Banks Accessed per Memory Operation per Warp (from 0):
0	0	0	0	0	0	0	0	0	0	0	0	0	0	0	0	0	0	0	0	0	0	0	0	0	0	0	0	0	0	0	0	0	0	0	0	0	0	0	0	0	0	0	0	0	0	0	0	0	0	0	0	0	0	0	0	0	0	0	0	0	0	0	0	0	0	0	0	0	0	0	0	0	0	0	0	0	0	0	0	0	0	0	0	0	0	0	0	0	0	0	0	0	0	0	0	0	0	0	0	0	0	0	0	0	0	0	0	0	0	0	0	0	0	0	0	0	0	0	0	0	0	0	0	0	0	0	0	0	0	0	0	0	0	0	0	0	0	0	0	0	0	0	0	0	0	0	0	0	0	0	0	0	0	0	0	0	0	0	0	0	0	0	0	0	0	0	0	0	0	0	0	0	0	0	0	0	0	0	0	0	0	0	0	0	0	0	0	0	0	0	0	
Average # of Memory Banks Accessed per Memory Operation per Warp=-nan

position of mrq chosen
0	0	0	0	0	0	0	0	0	0	0	0	0	0	0	0	0	0	0	0	0	0	0	0	0	0	0	0	0	0	0	0	0	0	0	0	0	0	0	0	0	0	0	0	0	0	0	0	0	0	0	0	0	0	0	0	0	0	0	0	0	0	0	0	

average position of mrq chosen = -nan
Memory Partition 0: 
Cache L2_bank_000:
MSHR contents

Cache L2_bank_001:
MSHR contents

In Dram Latency Queue (total = 0): 
DRAM[0]: 16 bks, busW=2 BL=16 CL=24, tRRD=12 tCCD=4, tRCD=24 tRAS=55 tRP=24 tRC=78
n_cmd=50477 n_nop=47424 n_act=85 n_pre=69 n_ref_event=0 n_req=2538 n_rd=2416 n_rd_L2_A=0 n_write=0 n_wr_bk=488 bw_util=0.2301
n_activity=15438 dram_eff=0.7524
bk0: 128a 48246i bk1: 128a 48238i bk2: 128a 49497i bk3: 128a 49335i bk4: 108a 49582i bk5: 108a 49549i bk6: 180a 48873i bk7: 180a 48831i bk8: 128a 46528i bk9: 128a 46365i bk10: 192a 47742i bk11: 192a 47704i bk12: 152a 46571i bk13: 152a 46559i bk14: 192a 48838i bk15: 192a 48841i 

------------------------------------------------------------------------

Row_Buffer_Locality = 0.966509
Row_Buffer_Locality_read = 0.975993
Row_Buffer_Locality_write = 0.778689
Bank_Level_Parallism = 3.087645
Bank_Level_Parallism_Col = 2.922313
Bank_Level_Parallism_Ready = 1.516638
write_to_read_ratio_blp_rw_average = 0.209441
GrpLevelPara = 2.365824 

BW Util details:
bwutil = 0.230125 
total_CMD = 50477 
util_bw = 11616 
Wasted_Col = 1591 
Wasted_Row = 140 
Idle = 37130 

BW Util Bottlenecks: 
RCDc_limit = 419 
RCDWRc_limit = 97 
WTRc_limit = 637 
RTWc_limit = 723 
CCDLc_limit = 983 
rwq = 0 
CCDLc_limit_alone = 942 
WTRc_limit_alone = 625 
RTWc_limit_alone = 694 

Commands details: 
total_CMD = 50477 
n_nop = 47424 
Read = 2416 
Write = 0 
L2_Alloc = 0 
L2_WB = 488 
n_act = 85 
n_pre = 69 
n_ref = 0 
n_req = 2538 
total_req = 2904 

Dual Bus Interface Util: 
issued_total_row = 154 
issued_total_col = 2904 
Row_Bus_Util =  0.003051 
CoL_Bus_Util = 0.057531 
Either_Row_CoL_Bus_Util = 0.060483 
Issued_on_Two_Bus_Simul_Util = 0.000099 
issued_two_Eff = 0.001638 
queue_avg = 5.058621 


dram_util_bins: 0 0 0 0 0 0 0 0 0 0
dram_eff_bins: 0 0 0 0 0 0 0 0 0 0
mrqq: max=64 avg=5.05862
Memory Partition 1: 
Cache L2_bank_002:
MSHR contents

Cache L2_bank_003:
MSHR contents

In Dram Latency Queue (total = 0): 
DRAM[1]: 16 bks, busW=2 BL=16 CL=24, tRRD=12 tCCD=4, tRCD=24 tRAS=55 tRP=24 tRC=78
n_cmd=50477 n_nop=47430 n_act=84 n_pre=68 n_ref_event=0 n_req=2535 n_rd=2413 n_rd_L2_A=0 n_write=0 n_wr_bk=488 bw_util=0.2299
n_activity=15405 dram_eff=0.7533
bk0: 128a 48193i bk1: 128a 48342i bk2: 128a 49432i bk3: 128a 49407i bk4: 108a 49683i bk5: 108a 49600i bk6: 180a 49178i bk7: 180a 49024i bk8: 128a 47111i bk9: 128a 46771i bk10: 192a 47484i bk11: 192a 47198i bk12: 152a 46985i bk13: 152a 46966i bk14: 192a 48657i bk15: 189a 48691i 

------------------------------------------------------------------------

Row_Buffer_Locality = 0.966864
Row_Buffer_Locality_read = 0.975964
Row_Buffer_Locality_write = 0.786885
Bank_Level_Parallism = 2.995585
Bank_Level_Parallism_Col = 2.830175
Bank_Level_Parallism_Ready = 1.436620
write_to_read_ratio_blp_rw_average = 0.231296
GrpLevelPara = 2.303294 

BW Util details:
bwutil = 0.229887 
total_CMD = 50477 
util_bw = 11604 
Wasted_Col = 1584 
Wasted_Row = 123 
Idle = 37166 

BW Util Bottlenecks: 
RCDc_limit = 424 
RCDWRc_limit = 67 
WTRc_limit = 474 
RTWc_limit = 738 
CCDLc_limit = 993 
rwq = 0 
CCDLc_limit_alone = 929 
WTRc_limit_alone = 458 
RTWc_limit_alone = 690 

Commands details: 
total_CMD = 50477 
n_nop = 47430 
Read = 2413 
Write = 0 
L2_Alloc = 0 
L2_WB = 488 
n_act = 84 
n_pre = 68 
n_ref = 0 
n_req = 2535 
total_req = 2901 

Dual Bus Interface Util: 
issued_total_row = 152 
issued_total_col = 2901 
Row_Bus_Util =  0.003011 
CoL_Bus_Util = 0.057472 
Either_Row_CoL_Bus_Util = 0.060364 
Issued_on_Two_Bus_Simul_Util = 0.000119 
issued_two_Eff = 0.001969 
queue_avg = 5.067536 


dram_util_bins: 0 0 0 0 0 0 0 0 0 0
dram_eff_bins: 0 0 0 0 0 0 0 0 0 0
mrqq: max=64 avg=5.06754
Memory Partition 2: 
Cache L2_bank_004:
MSHR contents

Cache L2_bank_005:
MSHR contents

In Dram Latency Queue (total = 2): 
Ready @ 19709 -   mf: uid=245818, sid4294967295:w4294967295, part=2, addr=0xc0bf3680, store, size=128, L2_WRBK  status = IN_PARTITION_DRAM_LATENCY_QUEUE (19613), 
Ready @ 19747 -   mf: uid=245824, sid4294967295:w4294967295, part=2, addr=0xc0bf3600, store, size=128, L2_WRBK  status = IN_PARTITION_DRAM_LATENCY_QUEUE (19651), 
DRAM[2]: 16 bks, busW=2 BL=16 CL=24, tRRD=12 tCCD=4, tRCD=24 tRAS=55 tRP=24 tRC=78
n_cmd=50477 n_nop=47417 n_act=79 n_pre=63 n_ref_event=0 n_req=2548 n_rd=2424 n_rd_L2_A=0 n_write=0 n_wr_bk=496 bw_util=0.2314
n_activity=15444 dram_eff=0.7563
bk0: 128a 48275i bk1: 128a 48197i bk2: 128a 49316i bk3: 128a 49315i bk4: 108a 49586i bk5: 108a 49648i bk6: 184a 48962i bk7: 184a 49142i bk8: 128a 46895i bk9: 128a 46884i bk10: 192a 47644i bk11: 192a 47653i bk12: 156a 47237i bk13: 156a 47151i bk14: 188a 48731i bk15: 188a 48766i 

------------------------------------------------------------------------

Row_Buffer_Locality = 0.968995
Row_Buffer_Locality_read = 0.976898
Row_Buffer_Locality_write = 0.814516
Bank_Level_Parallism = 2.936240
Bank_Level_Parallism_Col = 2.794409
Bank_Level_Parallism_Ready = 1.426084
write_to_read_ratio_blp_rw_average = 0.246796
GrpLevelPara = 2.382171 

BW Util details:
bwutil = 0.231393 
total_CMD = 50477 
util_bw = 11680 
Wasted_Col = 1522 
Wasted_Row = 146 
Idle = 37129 

BW Util Bottlenecks: 
RCDc_limit = 460 
RCDWRc_limit = 92 
WTRc_limit = 402 
RTWc_limit = 717 
CCDLc_limit = 827 
rwq = 0 
CCDLc_limit_alone = 767 
WTRc_limit_alone = 384 
RTWc_limit_alone = 675 

Commands details: 
total_CMD = 50477 
n_nop = 47417 
Read = 2424 
Write = 0 
L2_Alloc = 0 
L2_WB = 496 
n_act = 79 
n_pre = 63 
n_ref = 0 
n_req = 2548 
total_req = 2920 

Dual Bus Interface Util: 
issued_total_row = 142 
issued_total_col = 2920 
Row_Bus_Util =  0.002813 
CoL_Bus_Util = 0.057848 
Either_Row_CoL_Bus_Util = 0.060622 
Issued_on_Two_Bus_Simul_Util = 0.000040 
issued_two_Eff = 0.000654 
queue_avg = 4.336807 


dram_util_bins: 0 0 0 0 0 0 0 0 0 0
dram_eff_bins: 0 0 0 0 0 0 0 0 0 0
mrqq: max=64 avg=4.33681
Memory Partition 3: 
Cache L2_bank_006:
MSHR contents

Cache L2_bank_007:
MSHR contents

In Dram Latency Queue (total = 0): 
DRAM[3]: 16 bks, busW=2 BL=16 CL=24, tRRD=12 tCCD=4, tRCD=24 tRAS=55 tRP=24 tRC=78
n_cmd=50477 n_nop=47420 n_act=79 n_pre=63 n_ref_event=0 n_req=2542 n_rd=2417 n_rd_L2_A=0 n_write=0 n_wr_bk=500 bw_util=0.2312
n_activity=15439 dram_eff=0.7557
bk0: 128a 48234i bk1: 128a 48227i bk2: 128a 49354i bk3: 125a 49235i bk4: 108a 49705i bk5: 108a 49689i bk6: 184a 49172i bk7: 184a 48793i bk8: 128a 46865i bk9: 128a 46624i bk10: 192a 47355i bk11: 192a 47124i bk12: 156a 47139i bk13: 152a 47131i bk14: 188a 48926i bk15: 188a 48836i 

------------------------------------------------------------------------

Row_Buffer_Locality = 0.968922
Row_Buffer_Locality_read = 0.976831
Row_Buffer_Locality_write = 0.816000
Bank_Level_Parallism = 3.036538
Bank_Level_Parallism_Col = 2.900616
Bank_Level_Parallism_Ready = 1.492987
write_to_read_ratio_blp_rw_average = 0.232921
GrpLevelPara = 2.403946 

BW Util details:
bwutil = 0.231155 
total_CMD = 50477 
util_bw = 11668 
Wasted_Col = 1398 
Wasted_Row = 188 
Idle = 37223 

BW Util Bottlenecks: 
RCDc_limit = 506 
RCDWRc_limit = 139 
WTRc_limit = 398 
RTWc_limit = 541 
CCDLc_limit = 798 
rwq = 0 
CCDLc_limit_alone = 761 
WTRc_limit_alone = 380 
RTWc_limit_alone = 522 

Commands details: 
total_CMD = 50477 
n_nop = 47420 
Read = 2417 
Write = 0 
L2_Alloc = 0 
L2_WB = 500 
n_act = 79 
n_pre = 63 
n_ref = 0 
n_req = 2542 
total_req = 2917 

Dual Bus Interface Util: 
issued_total_row = 142 
issued_total_col = 2917 
Row_Bus_Util =  0.002813 
CoL_Bus_Util = 0.057789 
Either_Row_CoL_Bus_Util = 0.060562 
Issued_on_Two_Bus_Simul_Util = 0.000040 
issued_two_Eff = 0.000654 
queue_avg = 4.532441 


dram_util_bins: 0 0 0 0 0 0 0 0 0 0
dram_eff_bins: 0 0 0 0 0 0 0 0 0 0
mrqq: max=64 avg=4.53244
Memory Partition 4: 
Cache L2_bank_008:
MSHR contents

Cache L2_bank_009:
MSHR contents

In Dram Latency Queue (total = 0): 
DRAM[4]: 16 bks, busW=2 BL=16 CL=24, tRRD=12 tCCD=4, tRCD=24 tRAS=55 tRP=24 tRC=78
n_cmd=50477 n_nop=47442 n_act=84 n_pre=68 n_ref_event=0 n_req=2522 n_rd=2400 n_rd_L2_A=0 n_write=0 n_wr_bk=485 bw_util=0.2286
n_activity=15080 dram_eff=0.7653
bk0: 128a 48364i bk1: 128a 48239i bk2: 124a 49521i bk3: 124a 49437i bk4: 104a 49692i bk5: 104a 49808i bk6: 184a 48836i bk7: 184a 48946i bk8: 128a 47158i bk9: 128a 47174i bk10: 192a 47341i bk11: 192a 47360i bk12: 152a 47143i bk13: 152a 47059i bk14: 188a 48622i bk15: 188a 48558i 

------------------------------------------------------------------------

Row_Buffer_Locality = 0.966693
Row_Buffer_Locality_read = 0.975417
Row_Buffer_Locality_write = 0.795082
Bank_Level_Parallism = 2.878707
Bank_Level_Parallism_Col = 2.732765
Bank_Level_Parallism_Ready = 1.448705
write_to_read_ratio_blp_rw_average = 0.218601
GrpLevelPara = 2.324062 

BW Util details:
bwutil = 0.228619 
total_CMD = 50477 
util_bw = 11538 
Wasted_Col = 1679 
Wasted_Row = 186 
Idle = 37074 

BW Util Bottlenecks: 
RCDc_limit = 503 
RCDWRc_limit = 110 
WTRc_limit = 445 
RTWc_limit = 766 
CCDLc_limit = 1022 
rwq = 0 
CCDLc_limit_alone = 964 
WTRc_limit_alone = 412 
RTWc_limit_alone = 741 

Commands details: 
total_CMD = 50477 
n_nop = 47442 
Read = 2400 
Write = 0 
L2_Alloc = 0 
L2_WB = 485 
n_act = 84 
n_pre = 68 
n_ref = 0 
n_req = 2522 
total_req = 2885 

Dual Bus Interface Util: 
issued_total_row = 152 
issued_total_col = 2885 
Row_Bus_Util =  0.003011 
[...]
DRAM[8]: 16 bks, busW=2 BL=16 CL=24, tRRD=12 tCCD=4, tRCD=24 tRAS=55 tRP=24 tRC=78
n_cmd=5167878 n_nop=5116020 n_act=9865 n_pre=9849 n_ref_event=0 n_req=28216 n_rd=26720 n_rd_L2_A=0 n_write=0 n_wr_bk=5984 bw_util=0.02531
n_activity=496269 dram_eff=0.2636
bk0: 1654a 5121830i bk1: 1650a 5125251i bk2: 1655a 5114806i bk3: 1655a 5113867i bk4: 1608a 5117413i bk5: 1605a 5118301i bk6: 1717a 5115995i bk7: 1730a 5114466i bk8: 1642a 5120173i bk9: 1665a 5117533i bk10: 1715a 5116753i bk11: 1716a 5115862i bk12: 1671a 5110776i bk13: 1673a 5113306i bk14: 1689a 5121304i bk15: 1675a 5120609i 

------------------------------------------------------------------------

Row_Buffer_Locality = 0.650376
Row_Buffer_Locality_read = 0.667627
Row_Buffer_Locality_write = 0.342246
Bank_Level_Parallism = 2.258767
Bank_Level_Parallism_Col = 1.894784
Bank_Level_Parallism_Ready = 1.321571
write_to_read_ratio_blp_rw_average = 0.178749
GrpLevelPara = 1.562152 

BW Util details:
bwutil = 0.025313 
total_CMD = 5167878 
util_bw = 130816 
Wasted_Col = 166822 
Wasted_Row = 84120 
Idle = 4786120 

BW Util Bottlenecks: 
RCDc_limit = 161684 
RCDWRc_limit = 9117 
WTRc_limit = 32559 
RTWc_limit = 27953 
CCDLc_limit = 22984 
rwq = 0 
CCDLc_limit_alone = 19544 
WTRc_limit_alone = 30743 
RTWc_limit_alone = 26329 

Commands details: 
total_CMD = 5167878 
n_nop = 5116020 
Read = 26720 
Write = 0 
L2_Alloc = 0 
L2_WB = 5984 
n_act = 9865 
n_pre = 9849 
n_ref = 0 
n_req = 28216 
total_req = 32704 

Dual Bus Interface Util: 
issued_total_row = 19714 
issued_total_col = 32704 
Row_Bus_Util =  0.003815 
CoL_Bus_Util = 0.006328 
Either_Row_CoL_Bus_Util = 0.010035 
Issued_on_Two_Bus_Simul_Util = 0.000108 
issued_two_Eff = 0.010799 
queue_avg = 0.221908 


dram_util_bins: 0 0 0 0 0 0 0 0 0 0
dram_eff_bins: 0 0 0 0 0 0 0 0 0 0
mrqq: max=64 avg=0.221908
Memory Partition 9: 
Cache L2_bank_018:
MSHR contents

Cache L2_bank_019:
MSHR contents

In Dram Latency Queue (total = 0): 
DRAM[9]: 16 bks, busW=2 BL=16 CL=24, tRRD=12 tCCD=4, tRCD=24 tRAS=55 tRP=24 tRC=78
n_cmd=5167878 n_nop=5115910 n_act=9915 n_pre=9899 n_ref_event=0 n_req=28198 n_rd=26692 n_rd_L2_A=0 n_write=0 n_wr_bk=6024 bw_util=0.02532
n_activity=490279 dram_eff=0.2669
bk0: 1648a 5120490i bk1: 1641a 5122233i bk2: 1653a 5117469i bk3: 1642a 5116667i bk4: 1624a 5118179i bk5: 1620a 5116430i bk6: 1720a 5117546i bk7: 1726a 5117457i bk8: 1675a 5117266i bk9: 1653a 5118012i bk10: 1720a 5116110i bk11: 1741a 5113875i bk12: 1652a 5111751i bk13: 1666a 5109904i bk14: 1652a 5121734i bk15: 1659a 5117935i 

------------------------------------------------------------------------

Row_Buffer_Locality = 0.648379
Row_Buffer_Locality_read = 0.667691
Row_Buffer_Locality_write = 0.306109
Bank_Level_Parallism = 2.282366
Bank_Level_Parallism_Col = 1.909243
Bank_Level_Parallism_Ready = 1.329915
write_to_read_ratio_blp_rw_average = 0.184749
GrpLevelPara = 1.566429 

BW Util details:
bwutil = 0.025323 
total_CMD = 5167878 
util_bw = 130864 
Wasted_Col = 166017 
Wasted_Row = 82918 
Idle = 4788079 

BW Util Bottlenecks: 
RCDc_limit = 161040 
RCDWRc_limit = 9561 
WTRc_limit = 32287 
RTWc_limit = 27660 
CCDLc_limit = 22823 
rwq = 0 
CCDLc_limit_alone = 19704 
WTRc_limit_alone = 30521 
RTWc_limit_alone = 26307 

Commands details: 
total_CMD = 5167878 
n_nop = 5115910 
Read = 26692 
Write = 0 
L2_Alloc = 0 
L2_WB = 6024 
n_act = 9915 
n_pre = 9899 
n_ref = 0 
n_req = 28198 
total_req = 32716 

Dual Bus Interface Util: 
issued_total_row = 19814 
issued_total_col = 32716 
Row_Bus_Util =  0.003834 
CoL_Bus_Util = 0.006331 
Either_Row_CoL_Bus_Util = 0.010056 
Issued_on_Two_Bus_Simul_Util = 0.000109 
issued_two_Eff = 0.010814 
queue_avg = 0.220268 


dram_util_bins: 0 0 0 0 0 0 0 0 0 0
dram_eff_bins: 0 0 0 0 0 0 0 0 0 0
mrqq: max=64 avg=0.220268
Memory Partition 10: 
Cache L2_bank_020:
MSHR contents

Cache L2_bank_021:
MSHR contents

In Dram Latency Queue (total = 0): 
DRAM[10]: 16 bks, busW=2 BL=16 CL=24, tRRD=12 tCCD=4, tRCD=24 tRAS=55 tRP=24 tRC=78
n_cmd=5167878 n_nop=5116152 n_act=9750 n_pre=9734 n_ref_event=0 n_req=28272 n_rd=26769 n_rd_L2_A=0 n_write=0 n_wr_bk=6012 bw_util=0.02537
n_activity=491095 dram_eff=0.267
bk0: 1621a 5125197i bk1: 1653a 5123077i bk2: 1638a 5114929i bk3: 1654a 5115387i bk4: 1623a 5119323i bk5: 1645a 5117178i bk6: 1712a 5115461i bk7: 1730a 5117446i bk8: 1664a 5116326i bk9: 1656a 5115661i bk10: 1743a 5113737i bk11: 1743a 5114747i bk12: 1672a 5112633i bk13: 1660a 5110985i bk14: 1685a 5119405i bk15: 1670a 5120537i 

------------------------------------------------------------------------

Row_Buffer_Locality = 0.655136
Row_Buffer_Locality_read = 0.673316
Row_Buffer_Locality_write = 0.331337
Bank_Level_Parallism = 2.288324
Bank_Level_Parallism_Col = 1.941972
Bank_Level_Parallism_Ready = 1.344356
write_to_read_ratio_blp_rw_average = 0.183869
GrpLevelPara = 1.567096 

BW Util details:
bwutil = 0.025373 
total_CMD = 5167878 
util_bw = 131124 
Wasted_Col = 164765 
Wasted_Row = 83658 
Idle = 4788331 

BW Util Bottlenecks: 
RCDc_limit = 159519 
RCDWRc_limit = 9227 
WTRc_limit = 31148 
RTWc_limit = 27633 
CCDLc_limit = 22879 
rwq = 0 
CCDLc_limit_alone = 19555 
WTRc_limit_alone = 29407 
RTWc_limit_alone = 26050 

Commands details: 
total_CMD = 5167878 
n_nop = 5116152 
Read = 26769 
Write = 0 
L2_Alloc = 0 
L2_WB = 6012 
n_act = 9750 
n_pre = 9734 
n_ref = 0 
n_req = 28272 
total_req = 32781 

Dual Bus Interface Util: 
issued_total_row = 19484 
issued_total_col = 32781 
Row_Bus_Util =  0.003770 
CoL_Bus_Util = 0.006343 
Either_Row_CoL_Bus_Util = 0.010009 
Issued_on_Two_Bus_Simul_Util = 0.000104 
issued_two_Eff = 0.010420 
queue_avg = 0.238514 


dram_util_bins: 0 0 0 0 0 0 0 0 0 0
dram_eff_bins: 0 0 0 0 0 0 0 0 0 0
mrqq: max=64 avg=0.238514
Memory Partition 11: 
Cache L2_bank_022:
MSHR contents

Cache L2_bank_023:
MSHR contents

In Dram Latency Queue (total = 0): 
DRAM[11]: 16 bks, busW=2 BL=16 CL=24, tRRD=12 tCCD=4, tRCD=24 tRAS=55 tRP=24 tRC=78
n_cmd=5167878 n_nop=5116463 n_act=9599 n_pre=9583 n_ref_event=0 n_req=28280 n_rd=26774 n_rd_L2_A=0 n_write=0 n_wr_bk=6024 bw_util=0.02539
n_activity=486435 dram_eff=0.2697
bk0: 1643a 5124374i bk1: 1647a 5124044i bk2: 1638a 5117630i bk3: 1655a 5115996i bk4: 1634a 5118552i bk5: 1630a 5119390i bk6: 1718a 5114625i bk7: 1722a 5116031i bk8: 1657a 5118716i bk9: 1676a 5117308i bk10: 1738a 5115241i bk11: 1735a 5118316i bk12: 1654a 5115570i bk13: 1663a 5112755i bk14: 1686a 5121226i bk15: 1678a 5121577i 

------------------------------------------------------------------------

Row_Buffer_Locality = 0.660573
Row_Buffer_Locality_read = 0.677262
Row_Buffer_Locality_write = 0.363878
Bank_Level_Parallism = 2.278344
Bank_Level_Parallism_Col = 1.914994
Bank_Level_Parallism_Ready = 1.338413
write_to_read_ratio_blp_rw_average = 0.183368
GrpLevelPara = 1.567129 

BW Util details:
bwutil = 0.025386 
total_CMD = 5167878 
util_bw = 131192 
Wasted_Col = 162286 
Wasted_Row = 79882 
Idle = 4794518 

BW Util Bottlenecks: 
RCDc_limit = 156659 
RCDWRc_limit = 8914 
WTRc_limit = 30941 
RTWc_limit = 27397 
CCDLc_limit = 22527 
rwq = 0 
CCDLc_limit_alone = 19262 
WTRc_limit_alone = 29130 
RTWc_limit_alone = 25943 

Commands details: 
total_CMD = 5167878 
n_nop = 5116463 
Read = 26774 
Write = 0 
L2_Alloc = 0 
L2_WB = 6024 
n_act = 9599 
n_pre = 9583 
n_ref = 0 
n_req = 28280 
total_req = 32798 

Dual Bus Interface Util: 
issued_total_row = 19182 
issued_total_col = 32798 
Row_Bus_Util =  0.003712 
CoL_Bus_Util = 0.006347 
Either_Row_CoL_Bus_Util = 0.009949 
Issued_on_Two_Bus_Simul_Util = 0.000109 
issued_two_Eff = 0.010989 
queue_avg = 0.232290 


dram_util_bins: 0 0 0 0 0 0 0 0 0 0
dram_eff_bins: 0 0 0 0 0 0 0 0 0 0
mrqq: max=64 avg=0.23229

========= L2 cache stats =========
L2_cache_bank[0]: Access = 24715, Miss = 16750, Miss_rate = 0.678, Pending_hits = 326, Reservation_fails = 0
L2_cache_bank[1]: Access = 23767, Miss = 16758, Miss_rate = 0.705, Pending_hits = 74, Reservation_fails = 0
L2_cache_bank[2]: Access = 25288, Miss = 16811, Miss_rate = 0.665, Pending_hits = 74, Reservation_fails = 0
L2_cache_bank[3]: Access = 24831, Miss = 16774, Miss_rate = 0.676, Pending_hits = 87, Reservation_fails = 0
L2_cache_bank[4]: Access = 24849, Miss = 16778, Miss_rate = 0.675, Pending_hits = 53, Reservation_fails = 0
L2_cache_bank[5]: Access = 23716, Miss = 16711, Miss_rate = 0.705, Pending_hits = 53, Reservation_fails = 0
L2_cache_bank[6]: Access = 24342, Miss = 16703, Miss_rate = 0.686, Pending_hits = 74, Reservation_fails = 0
L2_cache_bank[7]: Access = 24223, Miss = 16733, Miss_rate = 0.691, Pending_hits = 55, Reservation_fails = 0
L2_cache_bank[8]: Access = 24887, Miss = 16729, Miss_rate = 0.672, Pending_hits = 315, Reservation_fails = 0
L2_cache_bank[9]: Access = 23759, Miss = 16725, Miss_rate = 0.704, Pending_hits = 77, Reservation_fails = 86
L2_cache_bank[10]: Access = 24329, Miss = 16740, Miss_rate = 0.688, Pending_hits = 76, Reservation_fails = 0
L2_cache_bank[11]: Access = 24657, Miss = 16736, Miss_rate = 0.679, Pending_hits = 65, Reservation_fails = 0
L2_cache_bank[12]: Access = 24858, Miss = 16721, Miss_rate = 0.673, Pending_hits = 88, Reservation_fails = 0
L2_cache_bank[13]: Access = 23851, Miss = 16718, Miss_rate = 0.701, Pending_hits = 101, Reservation_fails = 9
L2_cache_bank[14]: Access = 24856, Miss = 16745, Miss_rate = 0.674, Pending_hits = 66, Reservation_fails = 0
L2_cache_bank[15]: Access = 24614, Miss = 16735, Miss_rate = 0.680, Pending_hits = 84, Reservation_fails = 0
L2_cache_bank[16]: Access = 25147, Miss = 16743, Miss_rate = 0.666, Pending_hits = 367, Reservation_fails = 0
L2_cache_bank[17]: Access = 23978, Miss = 16761, Miss_rate = 0.699, Pending_hits = 74, Reservation_fails = 0
L2_cache_bank[18]: Access = 24573, Miss = 16736, Miss_rate = 0.681, Pending_hits = 72, Reservation_fails = 33
L2_cache_bank[19]: Access = 24609, Miss = 16740, Miss_rate = 0.680, Pending_hits = 63, Reservation_fails = 67
L2_cache_bank[20]: Access = 24482, Miss = 16750, Miss_rate = 0.684, Pending_hits = 79, Reservation_fails = 0
L2_cache_bank[21]: Access = 24327, Miss = 16803, Miss_rate = 0.691, Pending_hits = 72, Reservation_fails = 94
L2_cache_bank[22]: Access = 24703, Miss = 16760, Miss_rate = 0.678, Pending_hits = 72, Reservation_fails = 0
L2_cache_bank[23]: Access = 24811, Miss = 16798, Miss_rate = 0.677, Pending_hits = 75, Reservation_fails = 0
L2_total_cache_accesses = 588172
L2_total_cache_misses = 401958
L2_total_cache_miss_rate = 0.6834
L2_total_cache_pending_hits = 2542
L2_total_cache_reservation_fails = 289
L2_total_cache_breakdown:
	L2_cache_stats_breakdown[GLOBAL_ACC_R][HIT] = 183672
	L2_cache_stats_breakdown[GLOBAL_ACC_R][HIT_RESERVED] = 2542
	L2_cache_stats_breakdown[GLOBAL_ACC_R][MISS] = 83460
	L2_cache_stats_breakdown[GLOBAL_ACC_R][RESERVATION_FAIL] = 289
	L2_cache_stats_breakdown[GLOBAL_ACC_R][SECTOR_MISS] = 237064
	L2_cache_stats_breakdown[GLOBAL_ACC_R][MSHR_HIT] = 2542
	L2_cache_stats_breakdown[LOCAL_ACC_R][HIT] = 0
	L2_cache_stats_breakdown[LOCAL_ACC_R][HIT_RESERVED] = 0
	L2_cache_stats_breakdown[LOCAL_ACC_R][MISS] = 0
	L2_cache_stats_breakdown[LOCAL_ACC_R][RESERVATION_FAIL] = 0
	L2_cache_stats_breakdown[LOCAL_ACC_R][SECTOR_MISS] = 0
	L2_cache_stats_breakdown[LOCAL_ACC_R][MSHR_HIT] = 0
	L2_cache_stats_breakdown[CONST_ACC_R][HIT] = 0
	L2_cache_stats_breakdown[CONST_ACC_R][HIT_RESERVED] = 0
	L2_cache_stats_breakdown[CONST_ACC_R][MISS] = 0
	L2_cache_stats_breakdown[CONST_ACC_R][RESERVATION_FAIL] = 0
	L2_cache_stats_breakdown[CONST_ACC_R][SECTOR_MISS] = 0
	L2_cache_stats_breakdown[CONST_ACC_R][MSHR_HIT] = 0
	L2_cache_stats_breakdown[TEXTURE_ACC_R][HIT] = 0
	L2_cache_stats_breakdown[TEXTURE_ACC_R][HIT_RESERVED] = 0
	L2_cache_stats_breakdown[TEXTURE_ACC_R][MISS] = 0
	L2_cache_stats_breakdown[TEXTURE_ACC_R][RESERVATION_FAIL] = 0
	L2_cache_stats_breakdown[TEXTURE_ACC_R][SECTOR_MISS] = 0
	L2_cache_stats_breakdown[TEXTURE_ACC_R][MSHR_HIT] = 0
	L2_cache_stats_breakdown[GLOBAL_ACC_W][HIT] = 0
	L2_cache_stats_breakdown[GLOBAL_ACC_W][HIT_RESERVED] = 0
	L2_cache_stats_breakdown[GLOBAL_ACC_W][MISS] = 20360
	L2_cache_stats_breakdown[GLOBAL_ACC_W][RESERVATION_FAIL] = 0
	L2_cache_stats_breakdown[GLOBAL_ACC_W][SECTOR_MISS] = 61074
	L2_cache_stats_breakdown[GLOBAL_ACC_W][MSHR_HIT] = 0
	L2_cache_stats_breakdown[LOCAL_ACC_W][HIT] = 0
	L2_cache_stats_breakdown[LOCAL_ACC_W][HIT_RESERVED] = 0
	L2_cache_stats_breakdown[LOCAL_ACC_W][MISS] = 0
	L2_cache_stats_breakdown[LOCAL_ACC_W][RESERVATION_FAIL] = 0
	L2_cache_stats_breakdown[LOCAL_ACC_W][SECTOR_MISS] = 0
	L2_cache_stats_breakdown[LOCAL_ACC_W][MSHR_HIT] = 0
	L2_cache_stats_breakdown[L1_WRBK_ACC][HIT] = 0
	L2_cache_stats_breakdown[L1_WRBK_ACC][HIT_RESERVED] = 0
	L2_cache_stats_breakdown[L1_WRBK_ACC][MISS] = 0
	L2_cache_stats_breakdown[L1_WRBK_ACC][RESERVATION_FAIL] = 0
	L2_cache_stats_breakdown[L1_WRBK_ACC][SECTOR_MISS] = 0
	L2_cache_stats_breakdown[L1_WRBK_ACC][MSHR_HIT] = 0
	L2_cache_stats_breakdown[L2_WRBK_ACC][HIT] = 0
	L2_cache_stats_breakdown[L2_WRBK_ACC][HIT_RESERVED] = 0
	L2_cache_stats_breakdown[L2_WRBK_ACC][MISS] = 0
	L2_cache_stats_breakdown[L2_WRBK_ACC][RESERVATION_FAIL] = 0
	L2_cache_stats_breakdown[L2_WRBK_ACC][SECTOR_MISS] = 0
	L2_cache_stats_breakdown[L2_WRBK_ACC][MSHR_HIT] = 0
	L2_cache_stats_breakdown[INST_ACC_R][HIT] = 0
	L2_cache_stats_breakdown[INST_ACC_R][HIT_RESERVED] = 0
	L2_cache_stats_breakdown[INST_ACC_R][MISS] = 0
	L2_cache_stats_breakdown[INST_ACC_R][RESERVATION_FAIL] = 0
	L2_cache_stats_breakdown[INST_ACC_R][SECTOR_MISS] = 0
	L2_cache_stats_breakdown[INST_ACC_R][MSHR_HIT] = 0
	L2_cache_stats_breakdown[L1_WR_ALLOC_R][HIT] = 0
	L2_cache_stats_breakdown[L1_WR_ALLOC_R][HIT_RESERVED] = 0
	L2_cache_stats_breakdown[L1_WR_ALLOC_R][MISS] = 0
	L2_cache_stats_breakdown[L1_WR_ALLOC_R][RESERVATION_FAIL] = 0
	L2_cache_stats_breakdown[L1_WR_ALLOC_R][SECTOR_MISS] = 0
	L2_cache_stats_breakdown[L1_WR_ALLOC_R][MSHR_HIT] = 0
	L2_cache_stats_breakdown[L2_WR_ALLOC_R][HIT] = 0
	L2_cache_stats_breakdown[L2_WR_ALLOC_R][HIT_RESERVED] = 0
	L2_cache_stats_breakdown[L2_WR_ALLOC_R][MISS] = 0
	L2_cache_stats_breakdown[L2_WR_ALLOC_R][RESERVATION_FAIL] = 0
	L2_cache_stats_breakdown[L2_WR_ALLOC_R][SECTOR_MISS] = 0
	L2_cache_stats_breakdown[L2_WR_ALLOC_R][MSHR_HIT] = 0
	L2_cache_stats_breakdown[GLOBAL_ACC_R][TOTAL_ACCESS] = 506738
	L2_cache_stats_breakdown[GLOBAL_ACC_W][TOTAL_ACCESS] = 81434
L2_total_cache_reservation_fail_breakdown:
	L2_cache_stats_fail_breakdown[GLOBAL_ACC_R][MSHR_MERGE_ENRTY_FAIL] = 289
L2_cache_data_port_util = 0.004
L2_cache_fill_port_util = 0.007

icnt_total_pkts_mem_to_simt=588172
icnt_total_pkts_simt_to_mem=588172
LD_mem_lat_dist  0 0 0 0 0 0 0 0 0 0 0 0 0 0 0 0 0 0 0 0 0 0 0 0 0 0 0
ST_mem_lat_dist  0 0 0 0 0 0 0 0 0 0 0 0 0 0 0 0 0 0 0 0 0 0 0 0 0 0 0
----------------------------Interconnect-DETAILS--------------------------------
Req_Network_injected_packets_num = 588172
Req_Network_cycles = 2015186
Req_Network_injected_packets_per_cycle =       0.2919 
Req_Network_conflicts_per_cycle =       0.0616
Req_Network_conflicts_per_cycle_util =       0.6127
Req_Bank_Level_Parallism =       2.9033
Req_Network_in_buffer_full_per_cycle =       0.0000
Req_Network_in_buffer_avg_util =       0.0748
Req_Network_out_buffer_full_per_cycle =       0.0000
Req_Network_out_buffer_avg_util =       0.0398

Reply_Network_injected_packets_num = 588172
Reply_Network_cycles = 2015186
Reply_Network_injected_packets_per_cycle =        0.2919
Reply_Network_conflicts_per_cycle =        0.2773
Reply_Network_conflicts_per_cycle_util =       2.7467
Reply_Bank_Level_Parallism =       2.8906
Reply_Network_in_buffer_full_per_cycle =       0.0000
Reply_Network_in_buffer_avg_util =       0.0658
Reply_Network_out_buffer_full_per_cycle =       0.0000
Reply_Network_out_buffer_avg_util =       0.0097
----------------------------END-of-Interconnect-DETAILS-------------------------


gpgpu_simulation_time = 0 days, 1 hrs, 3 min, 33 sec (3813 sec)
gpgpu_simulation_rate = 7658 (inst/sec)
gpgpu_simulation_rate = 528 (cycle/sec)
gpgpu_silicon_slowdown = 2585227x
GPGPU-Sim PTX: Setting up arguments for 4 bytes starting at 0x7ffd372984ac..
GPGPU-Sim PTX: Setting up arguments for 8 bytes starting at 0x7ffd372984a0..
GPGPU-Sim PTX: Setting up arguments for 8 bytes starting at 0x7ffd37298498..
GPGPU-Sim PTX: Setting up arguments for 8 bytes starting at 0x7ffd37298490..
GPGPU-Sim PTX: Setting up arguments for 4 bytes starting at 0x7ffd372984a8..

GPGPU-Sim PTX: cudaLaunch for 0x0x55c55f1e6035 (mode=performance simulation) on stream 0
GPGPU-Sim PTX: finding reconvergence points for '_Z6l1normiPfS_S_f'...
GPGPU-Sim PTX: Finding dominators for '_Z6l1normiPfS_S_f'...
GPGPU-Sim PTX: Finding immediate dominators for '_Z6l1normiPfS_S_f'...
GPGPU-Sim PTX: Finding postdominators for '_Z6l1normiPfS_S_f'...
GPGPU-Sim PTX: Finding immediate postdominators for '_Z6l1normiPfS_S_f'...
GPGPU-Sim PTX: pre-decoding instructions for '_Z6l1normiPfS_S_f'...
GPGPU-Sim PTX: reconvergence points for _Z6l1normiPfS_S_f...
GPGPU-Sim PTX:  1 (potential) branch divergence @  PC=0x370 (pr_base.1.sm_75.ptx:224) @%p1 bra $L__BB2_2;

GPGPU-Sim PTX:    immediate post dominator      @  PC=0x3e8 (pr_base.1.sm_75.ptx:243) mov.u32 %r7, %laneid;

GPGPU-Sim PTX:  2 (potential) branch divergence @  PC=0x4a8 (pr_base.1.sm_75.ptx:268) @%p2 bra $L__BB2_4;

GPGPU-Sim PTX:    immediate post dominator      @  PC=0x4f0 (pr_base.1.sm_75.ptx:280) bar.sync 0;

GPGPU-Sim PTX:  3 (potential) branch divergence @  PC=0x500 (pr_base.1.sm_75.ptx:282) @%p3 bra $L__BB2_6;

GPGPU-Sim PTX:    immediate post dominator      @  PC=0x578 (pr_base.1.sm_75.ptx:300) @%p3 bra $L__BB2_8;

GPGPU-Sim PTX:  4 (potential) branch divergence @  PC=0x578 (pr_base.1.sm_75.ptx:300) @%p3 bra $L__BB2_8;

GPGPU-Sim PTX:    immediate post dominator      @  PC=0x590 (pr_base.1.sm_75.ptx:306) ret;

GPGPU-Sim PTX: ... end of reconvergence points for _Z6l1normiPfS_S_f
GPGPU-Sim PTX: ... done pre-decoding instructions for '_Z6l1normiPfS_S_f'.
GPGPU-Sim PTX: pushing kernel '_Z6l1normiPfS_S_f' to stream 0, gridDim= (1273,1,1) blockDim = (256,1,1) 
GPGPU-Sim uArch: Shader 28 bind to kernel 3 '_Z6l1normiPfS_S_f'
GPGPU-Sim uArch: CTA/core = 4, limited by: threads
GPGPU-Sim: Reconfigure L1 cache to 64KB
GPGPU-Sim uArch: Shader 29 bind to kernel 3 '_Z6l1normiPfS_S_f'
GPGPU-Sim uArch: Shader 0 bind to kernel 3 '_Z6l1normiPfS_S_f'
GPGPU-Sim uArch: Shader 1 bind to kernel 3 '_Z6l1normiPfS_S_f'
GPGPU-Sim uArch: Shader 2 bind to kernel 3 '_Z6l1normiPfS_S_f'
GPGPU-Sim uArch: Shader 3 bind to kernel 3 '_Z6l1normiPfS_S_f'
GPGPU-Sim uArch: Shader 4 bind to kernel 3 '_Z6l1normiPfS_S_f'
GPGPU-Sim uArch: Shader 5 bind to kernel 3 '_Z6l1normiPfS_S_f'
GPGPU-Sim uArch: Shader 6 bind to kernel 3 '_Z6l1normiPfS_S_f'
GPGPU-Sim uArch: Shader 7 bind to kernel 3 '_Z6l1normiPfS_S_f'
GPGPU-Sim uArch: Shader 8 bind to kernel 3 '_Z6l1normiPfS_S_f'
GPGPU-Sim uArch: Shader 9 bind to kernel 3 '_Z6l1normiPfS_S_f'
GPGPU-Sim uArch: Shader 10 bind to kernel 3 '_Z6l1normiPfS_S_f'
GPGPU-Sim uArch: Shader 11 bind to kernel 3 '_Z6l1normiPfS_S_f'
GPGPU-Sim uArch: Shader 12 bind to kernel 3 '_Z6l1normiPfS_S_f'
GPGPU-Sim uArch: Shader 13 bind to kernel 3 '_Z6l1normiPfS_S_f'
GPGPU-Sim uArch: Shader 14 bind to kernel 3 '_Z6l1normiPfS_S_f'
GPGPU-Sim uArch: Shader 15 bind to kernel 3 '_Z6l1normiPfS_S_f'
GPGPU-Sim uArch: Shader 16 bind to kernel 3 '_Z6l1normiPfS_S_f'
GPGPU-Sim uArch: Shader 17 bind to kernel 3 '_Z6l1normiPfS_S_f'
GPGPU-Sim uArch: Shader 18 bind to kernel 3 '_Z6l1normiPfS_S_f'
GPGPU-Sim uArch: Shader 19 bind to kernel 3 '_Z6l1normiPfS_S_f'
GPGPU-Sim uArch: Shader 20 bind to kernel 3 '_Z6l1normiPfS_S_f'
GPGPU-Sim uArch: Shader 21 bind to kernel 3 '_Z6l1normiPfS_S_f'
GPGPU-Sim uArch: Shader 22 bind to kernel 3 '_Z6l1normiPfS_S_f'
GPGPU-Sim uArch: Shader 23 bind to kernel 3 '_Z6l1normiPfS_S_f'
GPGPU-Sim uArch: Shader 24 bind to kernel 3 '_Z6l1normiPfS_S_f'
GPGPU-Sim uArch: Shader 25 bind to kernel 3 '_Z6l1normiPfS_S_f'
GPGPU-Sim uArch: Shader 26 bind to kernel 3 '_Z6l1normiPfS_S_f'
GPGPU-Sim uArch: Shader 27 bind to kernel 3 '_Z6l1normiPfS_S_f'
