

        *** GPGPU-Sim Simulator Version 4.2.0  [build gpgpu-sim_git-commit-5e9d31b8132651796656877ecb58fde27177ba7a_modified_315.0] ***


GPGPU-Sim PTX: simulation mode 0 (can change with PTX_SIM_MODE_FUNC environment variable:
               1=functional simulation only, 0=detailed performance simulator)
GPGPU-Sim PTX: overriding embedded ptx with ptx file (PTX_SIM_USE_PTX_FILE is set)
GPGPU-Sim: Configuration options:

-save_embedded_ptx                      0 # saves ptx files embedded in binary as <n>.ptx
-keep                                   0 # keep intermediate files created by GPGPU-Sim when interfacing with external programs
-gpgpu_ptx_save_converted_ptxplus                    0 # Saved converted ptxplus to a file
-gpgpu_occupancy_sm_number                   75 # The SM number to pass to ptxas when getting register usage for computing GPU occupancy. This parameter is required in the config.
-ptx_opcode_latency_int           4,4,4,4,21 # Opcode latencies for integers <ADD,MAX,MUL,MAD,DIV,SHFL>Default 1,1,19,25,145,32
-ptx_opcode_latency_fp           4,4,4,4,39 # Opcode latencies for single precision floating points <ADD,MAX,MUL,MAD,DIV>Default 1,1,1,1,30
-ptx_opcode_latency_dp      64,64,64,64,330 # Opcode latencies for double precision floating points <ADD,MAX,MUL,MAD,DIV>Default 8,8,8,8,335
-ptx_opcode_latency_sfu                   21 # Opcode latencies for SFU instructionsDefault 8
-ptx_opcode_latency_tesnor                   64 # Opcode latencies for Tensor instructionsDefault 64
-ptx_opcode_initiation_int            2,2,2,2,2 # Opcode initiation intervals for integers <ADD,MAX,MUL,MAD,DIV,SHFL>Default 1,1,4,4,32,4
-ptx_opcode_initiation_fp            2,2,2,2,4 # Opcode initiation intervals for single precision floating points <ADD,MAX,MUL,MAD,DIV>Default 1,1,1,1,5
-ptx_opcode_initiation_dp      64,64,64,64,130 # Opcode initiation intervals for double precision floating points <ADD,MAX,MUL,MAD,DIV>Default 8,8,8,8,130
-ptx_opcode_initiation_sfu                    8 # Opcode initiation intervals for sfu instructionsDefault 8
-ptx_opcode_initiation_tensor                   64 # Opcode initiation intervals for tensor instructionsDefault 64
-cdp_latency         7200,8000,100,12000,1600 # CDP API latency <cudaStreamCreateWithFlags, cudaGetParameterBufferV2_init_perWarp, cudaGetParameterBufferV2_perKernel, cudaLaunchDeviceV2_init_perWarp, cudaLaunchDevicV2_perKernel>Default 7200,8000,100,12000,1600
-network_mode                           2 # Interconnection network mode
-inter_config_file                   mesh # Interconnection network config file
-icnt_in_buffer_limit                  512 # in_buffer_limit
-icnt_out_buffer_limit                  512 # out_buffer_limit
-icnt_subnets                           2 # subnets
-icnt_arbiter_algo                      1 # arbiter_algo
-icnt_verbose                           0 # inct_verbose
-icnt_grant_cycles                      1 # grant_cycles
-gpgpu_ptx_use_cuobjdump                    1 # Use cuobjdump to extract ptx and sass from binaries
-gpgpu_experimental_lib_support                    0 # Try to extract code from cuda libraries [Broken because of unknown cudaGetExportTable]
-checkpoint_option                      0 #  checkpointing flag (0 = no checkpoint)
-checkpoint_kernel                      1 #  checkpointing during execution of which kernel (1- 1st kernel)
-checkpoint_CTA                         0 #  checkpointing after # of CTA (< less than total CTA)
-resume_option                          0 #  resume flag (0 = no resume)
-resume_kernel                          0 #  Resume from which kernel (1= 1st kernel)
-resume_CTA                             0 #  resume from which CTA 
-checkpoint_CTA_t                       0 #  resume from which CTA 
-checkpoint_insn_Y                      0 #  resume from which CTA 
-gpgpu_ptx_convert_to_ptxplus                    0 # Convert SASS (native ISA) to ptxplus and run ptxplus
-gpgpu_ptx_force_max_capability                   75 # Force maximum compute capability
-gpgpu_ptx_inst_debug_to_file                    0 # Dump executed instructions' debug information to file
-gpgpu_ptx_inst_debug_file       inst_debug.txt # Executed instructions' debug output file
-gpgpu_ptx_inst_debug_thread_uid                    1 # Thread UID for executed instructions' debug output
-gpgpu_simd_model                       1 # 1 = post-dominator
-gpgpu_shader_core_pipeline              1024:32 # shader core pipeline config, i.e., {<nthread>:<warpsize>}
-gpgpu_tex_cache:l1  N:4:128:256,L:R:m:N:L,T:512:8,128:2 # per-shader L1 texture cache  (READ-ONLY) config  {<nsets>:<bsize>:<assoc>,<rep>:<wr>:<alloc>:<wr_alloc>,<mshr>:<N>:<merge>,<mq>:<rf>}
-gpgpu_const_cache:l1 N:128:64:8,L:R:f:N:L,S:2:64,4 # per-shader L1 constant memory cache  (READ-ONLY) config  {<nsets>:<bsize>:<assoc>,<rep>:<wr>:<alloc>:<wr_alloc>,<mshr>:<N>:<merge>,<mq>} 
-gpgpu_cache:il1     N:64:128:16,L:R:f:N:L,S:2:48,4 # shader L1 instruction cache config  {<nsets>:<bsize>:<assoc>,<rep>:<wr>:<alloc>:<wr_alloc>,<mshr>:<N>:<merge>,<mq>} 
-gpgpu_cache:dl1     S:4:128:64,L:T:m:L:L,A:256:32,16:0,32 # per-shader L1 data cache config  {<nsets>:<bsize>:<assoc>,<rep>:<wr>:<alloc>:<wr_alloc>,<mshr>:<N>:<merge>,<mq> | none}
-gpgpu_l1_cache_write_ratio                   25 # L1D write ratio
-gpgpu_l1_banks                         4 # The number of L1 cache banks
-gpgpu_l1_banks_byte_interleaving                   32 # l1 banks byte interleaving granularity
-gpgpu_l1_banks_hashing_function                    0 # l1 banks hashing function
-gpgpu_l1_latency                      32 # L1 Hit Latency
-gpgpu_smem_latency                    30 # smem Latency
-gpgpu_cache:dl1PrefL1                 none # per-shader L1 data cache config  {<nsets>:<bsize>:<assoc>,<rep>:<wr>:<alloc>:<wr_alloc>,<mshr>:<N>:<merge>,<mq> | none}
-gpgpu_cache:dl1PrefShared                 none # per-shader L1 data cache config  {<nsets>:<bsize>:<assoc>,<rep>:<wr>:<alloc>:<wr_alloc>,<mshr>:<N>:<merge>,<mq> | none}
-gpgpu_gmem_skip_L1D                    0 # global memory access skip L1D cache (implements -Xptxas -dlcm=cg, default=no skip)
-gpgpu_perfect_mem                      0 # enable perfect memory mode (no cache miss)
-n_regfile_gating_group                    4 # group of lanes that should be read/written together)
-gpgpu_clock_gated_reg_file                    0 # enable clock gated reg file for power calculations
-gpgpu_clock_gated_lanes                    0 # enable clock gated lanes for power calculations
-gpgpu_shader_registers                65536 # Number of registers per shader core. Limits number of concurrent CTAs. (default 8192)
-gpgpu_registers_per_block                65536 # Maximum number of registers per CTA. (default 8192)
-gpgpu_ignore_resources_limitation                    0 # gpgpu_ignore_resources_limitation (default 0)
-gpgpu_shader_cta                      16 # Maximum number of concurrent CTAs in shader (default 32)
-gpgpu_num_cta_barriers                   16 # Maximum number of named barriers per CTA (default 16)
-gpgpu_n_clusters                      30 # number of processing clusters
-gpgpu_n_cores_per_cluster                    1 # number of simd cores per cluster
-gpgpu_n_cluster_ejection_buffer_size                   32 # number of packets in ejection buffer
-gpgpu_n_ldst_response_buffer_size                    2 # number of response packets in ld/st unit ejection buffer
-gpgpu_shmem_per_block                49152 # Size of shared memory per thread block or CTA (default 48kB)
-gpgpu_shmem_size                   65536 # Size of shared memory per shader core (default 16kB)
-gpgpu_shmem_option                 32,64 # Option list of shared memory sizes
-gpgpu_unified_l1d_size                   96 # Size of unified data cache(L1D + shared memory) in KB
-gpgpu_adaptive_cache_config                    1 # adaptive_cache_config
-gpgpu_shmem_sizeDefault                65536 # Size of shared memory per shader core (default 16kB)
-gpgpu_shmem_size_PrefL1                16384 # Size of shared memory per shader core (default 16kB)
-gpgpu_shmem_size_PrefShared                16384 # Size of shared memory per shader core (default 16kB)
-gpgpu_shmem_num_banks                   32 # Number of banks in the shared memory in each shader core (default 16)
-gpgpu_shmem_limited_broadcast                    0 # Limit shared memory to do one broadcast per cycle (default on)
-gpgpu_shmem_warp_parts                    1 # Number of portions a warp is divided into for shared memory bank conflict check 
-gpgpu_mem_unit_ports                    1 # The number of memory transactions allowed per core cycle
-gpgpu_shmem_warp_parts                    1 # Number of portions a warp is divided into for shared memory bank conflict check 
-gpgpu_warpdistro_shader                   -1 # Specify which shader core to collect the warp size distribution from
-gpgpu_warp_issue_shader                    0 # Specify which shader core to collect the warp issue distribution from
-gpgpu_local_mem_map                    1 # Mapping from local memory space address to simulated GPU physical address space (default = enabled)
-gpgpu_num_reg_banks                    8 # Number of register banks (default = 8)
-gpgpu_reg_bank_use_warp_id                    0 # Use warp ID in mapping registers to banks (default = off)
-gpgpu_sub_core_model                    1 # Sub Core Volta/Pascal model (default = off)
-gpgpu_enable_specialized_operand_collector                    0 # enable_specialized_operand_collector
-gpgpu_operand_collector_num_units_sp                    4 # number of collector units (default = 4)
-gpgpu_operand_collector_num_units_dp                    0 # number of collector units (default = 0)
-gpgpu_operand_collector_num_units_sfu                    4 # number of collector units (default = 4)
-gpgpu_operand_collector_num_units_int                    0 # number of collector units (default = 0)
-gpgpu_operand_collector_num_units_tensor_core                    4 # number of collector units (default = 4)
-gpgpu_operand_collector_num_units_mem                    2 # number of collector units (default = 2)
-gpgpu_operand_collector_num_units_gen                    8 # number of collector units (default = 0)
-gpgpu_operand_collector_num_in_ports_sp                    1 # number of collector unit in ports (default = 1)
-gpgpu_operand_collector_num_in_ports_dp                    0 # number of collector unit in ports (default = 0)
-gpgpu_operand_collector_num_in_ports_sfu                    1 # number of collector unit in ports (default = 1)
-gpgpu_operand_collector_num_in_ports_int                    0 # number of collector unit in ports (default = 0)
-gpgpu_operand_collector_num_in_ports_tensor_core                    1 # number of collector unit in ports (default = 1)
-gpgpu_operand_collector_num_in_ports_mem                    1 # number of collector unit in ports (default = 1)
-gpgpu_operand_collector_num_in_ports_gen                    8 # number of collector unit in ports (default = 0)
-gpgpu_operand_collector_num_out_ports_sp                    1 # number of collector unit in ports (default = 1)
-gpgpu_operand_collector_num_out_ports_dp                    0 # number of collector unit in ports (default = 0)
-gpgpu_operand_collector_num_out_ports_sfu                    1 # number of collector unit in ports (default = 1)
-gpgpu_operand_collector_num_out_ports_int                    0 # number of collector unit in ports (default = 0)
-gpgpu_operand_collector_num_out_ports_tensor_core                    1 # number of collector unit in ports (default = 1)
-gpgpu_operand_collector_num_out_ports_mem                    1 # number of collector unit in ports (default = 1)
-gpgpu_operand_collector_num_out_ports_gen                    8 # number of collector unit in ports (default = 0)
-gpgpu_coalesce_arch                   75 # Coalescing arch (GT200 = 13, Fermi = 20)
-gpgpu_num_sched_per_core                    4 # Number of warp schedulers per core
-gpgpu_max_insn_issue_per_warp                    1 # Max number of instructions that can be issued per warp in one cycle by scheduler (either 1 or 2)
-gpgpu_dual_issue_diff_exec_units                    1 # should dual issue use two different execution unit resources (Default = 1)
-gpgpu_simt_core_sim_order                    1 # Select the simulation order of cores in a cluster (0=Fix, 1=Round-Robin)
-gpgpu_pipeline_widths 4,4,4,4,4,4,4,4,4,4,8,4,4 # Pipeline widths ID_OC_SP,ID_OC_DP,ID_OC_INT,ID_OC_SFU,ID_OC_MEM,OC_EX_SP,OC_EX_DP,OC_EX_INT,OC_EX_SFU,OC_EX_MEM,EX_WB,ID_OC_TENSOR_CORE,OC_EX_TENSOR_CORE
-gpgpu_tensor_core_avail                    1 # Tensor Core Available (default=0)
-gpgpu_num_sp_units                     4 # Number of SP units (default=1)
-gpgpu_num_dp_units                     4 # Number of DP units (default=0)
-gpgpu_num_int_units                    4 # Number of INT units (default=0)
-gpgpu_num_sfu_units                    4 # Number of SF units (default=1)
-gpgpu_num_tensor_core_units                    4 # Number of tensor_core units (default=1)
-gpgpu_num_mem_units                    1 # Number if ldst units (default=1) WARNING: not hooked up to anything
-gpgpu_scheduler                      lrr # Scheduler configuration: < lrr | gto | two_level_active > If two_level_active:<num_active_warps>:<inner_prioritization>:<outer_prioritization>For complete list of prioritization values see shader.h enum scheduler_prioritization_typeDefault: gto
-gpgpu_concurrent_kernel_sm                    0 # Support concurrent kernels on a SM (default = disabled)
-gpgpu_perfect_inst_const_cache                    1 # perfect inst and const cache mode, so all inst and const hits in the cache(default = disabled)
-gpgpu_inst_fetch_throughput                    4 # the number of fetched intruction per warp each cycle
-gpgpu_reg_file_port_throughput                    2 # the number ports of the register file
-specialized_unit_1         0,4,4,4,4,BRA # specialized unit config {<enabled>,<num_units>:<latency>:<initiation>,<ID_OC_SPEC>:<OC_EX_SPEC>,<NAME>}
-specialized_unit_2         0,4,4,4,4,BRA # specialized unit config {<enabled>,<num_units>:<latency>:<initiation>,<ID_OC_SPEC>:<OC_EX_SPEC>,<NAME>}
-specialized_unit_3         0,4,4,4,4,BRA # specialized unit config {<enabled>,<num_units>:<latency>:<initiation>,<ID_OC_SPEC>:<OC_EX_SPEC>,<NAME>}
-specialized_unit_4         0,4,4,4,4,BRA # specialized unit config {<enabled>,<num_units>:<latency>:<initiation>,<ID_OC_SPEC>:<OC_EX_SPEC>,<NAME>}
-specialized_unit_5         0,4,4,4,4,BRA # specialized unit config {<enabled>,<num_units>:<latency>:<initiation>,<ID_OC_SPEC>:<OC_EX_SPEC>,<NAME>}
-specialized_unit_6         0,4,4,4,4,BRA # specialized unit config {<enabled>,<num_units>:<latency>:<initiation>,<ID_OC_SPEC>:<OC_EX_SPEC>,<NAME>}
-specialized_unit_7         0,4,4,4,4,BRA # specialized unit config {<enabled>,<num_units>:<latency>:<initiation>,<ID_OC_SPEC>:<OC_EX_SPEC>,<NAME>}
-specialized_unit_8         0,4,4,4,4,BRA # specialized unit config {<enabled>,<num_units>:<latency>:<initiation>,<ID_OC_SPEC>:<OC_EX_SPEC>,<NAME>}
-gpgpu_perf_sim_memcpy                    1 # Fill the L2 cache on memcpy
-gpgpu_simple_dram_model                    0 # simple_dram_model with fixed latency and BW
-gpgpu_dram_scheduler                    1 # 0 = fifo, 1 = FR-FCFS (defaul)
-gpgpu_dram_partition_queues          64:64:64:64 # i2$:$2d:d2$:$2i
-l2_ideal                               0 # Use a ideal L2 cache that always hit
-gpgpu_cache:dl2     S:64:128:16,L:B:m:L:P,A:192:4,32:0,32 # unified banked L2 data cache config  {<nsets>:<bsize>:<assoc>,<rep>:<wr>:<alloc>:<wr_alloc>,<mshr>:<N>:<merge>,<mq>}
-gpgpu_cache:dl2_texture_only                    0 # L2 cache used for texture only
-gpgpu_n_mem                           12 # number of memory modules (e.g. memory controllers) in gpu
-gpgpu_n_sub_partition_per_mchannel                    2 # number of memory subpartition in each memory module
-gpgpu_n_mem_per_ctrlr                    1 # number of memory chips per memory controller
-gpgpu_memlatency_stat                   14 # track and display latency statistics 0x2 enables MC, 0x4 enables queue logs
-gpgpu_frfcfs_dram_sched_queue_size                   64 # 0 = unlimited (default); # entries per chip
-gpgpu_dram_return_queue_size                  192 # 0 = unlimited (default); # entries per chip
-gpgpu_dram_buswidth                    2 # default = 4 bytes (8 bytes per cycle at DDR)
-gpgpu_dram_burst_length                   16 # Burst length of each DRAM request (default = 4 data bus cycle)
-dram_data_command_freq_ratio                    4 # Frequency ratio between DRAM data bus and command bus (default = 2 times, i.e. DDR)
-gpgpu_dram_timing_opt nbk=16:CCD=4:RRD=12:RCD=24:RAS=55:RP=24:RC=78:CL=24:WL=8:CDLR=10:WR=24:nbkgrp=4:CCDL=6:RTPL=4 # DRAM timing parameters = {nbk:tCCD:tRRD:tRCD:tRAS:tRP:tRC:CL:WL:tCDLR:tWR:nbkgrp:tCCDL:tRTPL}
-gpgpu_l2_rop_latency                  194 # ROP queue latency (default 85)
-dram_latency                          96 # DRAM latency (default 30)
-dram_dual_bus_interface                    0 # dual_bus_interface (default = 0) 
-dram_bnk_indexing_policy                    0 # dram_bnk_indexing_policy (0 = normal indexing, 1 = Xoring with the higher bits) (Default = 0)
-dram_bnkgrp_indexing_policy                    1 # dram_bnkgrp_indexing_policy (0 = take higher bits, 1 = take lower bits) (Default = 0)
-dram_seperate_write_queue_enable                    0 # Seperate_Write_Queue_Enable
-dram_write_queue_size             32:28:16 # Write_Queue_Size
-dram_elimnate_rw_turnaround                    0 # elimnate_rw_turnaround i.e set tWTR and tRTW = 0
-icnt_flit_size                        40 # icnt_flit_size
-icnt_flit_size                        40 # icnt_flit_size
-mem_profiler                           0 # memory access runtime profiling (0 = not enabled)
-gpgpu_mem_addr_mapping dramid@8;00000000.00000000.00000000.00000000.0000RRRR.RRRRRRRR.RBBBCCCC.BCCSSSSS # mapping memory address to dram model {dramid@<start bit>;<memory address map>}
-gpgpu_mem_addr_test                    0 # run sweep test to check address mapping for aliased address
-gpgpu_mem_address_mask                    1 # 0 = old addressing mask, 1 = new addressing mask, 2 = new add. mask + flipped bank sel and chip sel bits
-gpgpu_memory_partition_indexing                    0 # 0 = no indexing, 1 = bitwise xoring, 2 = IPoly, 3 = custom indexing
-accelwattch_xml_file accelwattch_sass_sim.xml # AccelWattch XML file
-power_simulation_enabled                    1 # Turn on power simulator (1=On, 0=Off)
-power_per_cycle_dump                    1 # Dump detailed power output each cycle
-hw_perf_file_name            hw_perf.csv # Hardware Performance Statistics file
-hw_perf_bench_name    hw_perf_bench_name # Kernel Name in Hardware Performance Statistics file
-power_simulation_mode                    0 # Switch performance counter input for power simulation (0=Sim, 1=HW, 2=HW-Sim Hybrid)
-dvfs_enabled                           1 # Turn on DVFS for power model
-aggregate_power_stats                    0 # Accumulate power across all kernels
-accelwattch_hybrid_perfsim_L1_RH                    0 # Get L1 Read Hits for Accelwattch-Hybrid from Accel-Sim
-accelwattch_hybrid_perfsim_L1_RM                    0 # Get L1 Read Misses for Accelwattch-Hybrid from Accel-Sim
-accelwattch_hybrid_perfsim_L1_WH                    0 # Get L1 Write Hits for Accelwattch-Hybrid from Accel-Sim
-accelwattch_hybrid_perfsim_L1_WM                    0 # Get L1 Write Misses for Accelwattch-Hybrid from Accel-Sim
-accelwattch_hybrid_perfsim_L2_RH                    0 # Get L2 Read Hits for Accelwattch-Hybrid from Accel-Sim
-accelwattch_hybrid_perfsim_L2_RM                    0 # Get L2 Read Misses for Accelwattch-Hybrid from Accel-Sim
-accelwattch_hybrid_perfsim_L2_WH                    0 # Get L2 Write Hits for Accelwattch-Hybrid from Accel-Sim
-accelwattch_hybrid_perfsim_L2_WM                    0 # Get L2 Write Misses for Accelwattch-Hybrid from Accel-Sim
-accelwattch_hybrid_perfsim_CC_ACC                    0 # Get Constant Cache Acesses for Accelwattch-Hybrid from Accel-Sim
-accelwattch_hybrid_perfsim_SHARED_ACC                    0 # Get Shared Memory Acesses for Accelwattch-Hybrid from Accel-Sim
-accelwattch_hybrid_perfsim_DRAM_RD                    0 # Get DRAM Reads for Accelwattch-Hybrid from Accel-Sim
-accelwattch_hybrid_perfsim_DRAM_WR                    0 # Get DRAM Writes for Accelwattch-Hybrid from Accel-Sim
-accelwattch_hybrid_perfsim_NOC                    0 # Get Interconnect Acesses for Accelwattch-Hybrid from Accel-Sim
-accelwattch_hybrid_perfsim_PIPE_DUTY                    0 # Get Pipeline Duty Cycle Acesses for Accelwattch-Hybrid from Accel-Sim
-accelwattch_hybrid_perfsim_NUM_SM_IDLE                    0 # Get Number of Idle SMs for Accelwattch-Hybrid from Accel-Sim
-accelwattch_hybrid_perfsim_CYCLES                    0 # Get Executed Cycles for Accelwattch-Hybrid from Accel-Sim
-accelwattch_hybrid_perfsim_VOLTAGE                    0 # Get Chip Voltage for Accelwattch-Hybrid from Accel-Sim
-power_trace_enabled                    0 # produce a file for the power trace (1=On, 0=Off)
-power_trace_zlevel                     0 # Compression level of the power trace output log (0=no comp, 9=highest)
-steady_power_levels_enabled                    0 # produce a file for the steady power levels (1=On, 0=Off)
-steady_state_definition                  8:4 # allowed deviation:number of samples
-gpgpu_max_cycle                        0 # terminates gpu simulation early (0 = no limit)
-gpgpu_max_insn                         0 # terminates gpu simulation early (0 = no limit)
-gpgpu_max_cta                          0 # terminates gpu simulation early (0 = no limit)
-gpgpu_max_completed_cta                    0 # terminates gpu simulation early (0 = no limit)
-gpgpu_runtime_stat                  1000 # display runtime statistics such as dram utilization {<freq>:<flag>}
-liveness_message_freq                    1 # Minimum number of seconds between simulation liveness messages (0 = always print)
-gpgpu_compute_capability_major                    7 # Major compute capability version number
-gpgpu_compute_capability_minor                    5 # Minor compute capability version number
-gpgpu_flush_l1_cache                    1 # Flush L1 cache at the end of each kernel call
-gpgpu_flush_l2_cache                    0 # Flush L2 cache at the end of each kernel call
-gpgpu_deadlock_detect                    1 # Stop the simulation at deadlock (1=on (default), 0=off)
-gpgpu_ptx_instruction_classification                    0 # if enabled will classify ptx instruction types per kernel (Max 255 kernels now)
-gpgpu_ptx_sim_mode                     0 # Select between Performance (default) or Functional simulation (1)
-gpgpu_clock_domains 1365:1365:1365:3500.5 # Clock Domain Frequencies in MhZ {<Core Clock>:<ICNT Clock>:<L2 Clock>:<DRAM Clock>}
-gpgpu_max_concurrent_kernel                  128 # maximum kernels that can run concurrently on GPU, set this value according to max resident grids for your compute capability
-gpgpu_cflog_interval                    0 # Interval between each snapshot in control flow logger
-visualizer_enabled                     0 # Turn on visualizer output (1=On, 0=Off)
-visualizer_outputfile                 NULL # Specifies the output log file for visualizer
-visualizer_zlevel                      6 # Compression level of the visualizer output log (0=no comp, 9=highest)
-gpgpu_stack_size_limit                 1024 # GPU thread stack size
-gpgpu_heap_size_limit              8388608 # GPU malloc heap size 
-gpgpu_runtime_sync_depth_limit                    2 # GPU device runtime synchronize depth
-gpgpu_runtime_pending_launch_count_limit                 2048 # GPU device runtime pending launch count
-trace_enabled                          0 # Turn on traces
-trace_components                    none # comma seperated list of traces to enable. Complete list found in trace_streams.tup. Default none
-trace_sampling_core                    0 # The core which is printed using CORE_DPRINTF. Default 0
-trace_sampling_memory_partition                   -1 # The memory partition which is printed using MEMPART_DPRINTF. Default -1 (i.e. all)
-enable_ptx_file_line_stats                    1 # Turn on PTX source line statistic profiling. (1 = On)
-ptx_line_stats_filename gpgpu_inst_stats.txt # Output file for PTX source line statistics.
-gpgpu_kernel_launch_latency                 5000 # Kernel launch latency in cycles. Default: 0
-gpgpu_cdp_enabled                      0 # Turn on CDP
-gpgpu_TB_launch_latency                    0 # thread block launch latency in cycles. Default: 0
-mem_runtime_stat                     100 # memory access runtime profiling sampling81165b7b94fe60e5edd3661e7ddfbca7  /home/pars/Documents/sim_11/cc_base
Extracting PTX file and ptxas options    1: cc_base.1.sm_75.ptx -arch=sm_75
 freq
-L1D_metrics                            0 # memory access runtime profiling for L1 data cache
-IPC_per_prof_interval                    0 # IPC per profiling interval
-instruction_monitor                    0 # Instruction monitor
-noncoal_metrics                        0 # memory access runtime profiling for shared memory
-L2_metrics                             0 # memory access runtime profiling for L2 cache
-DRAM_metrics                           0 # memory access runtime profiling for DRAM
-Shmem_metrics                          0 # memory access runtime profiling for noncoalesced accesses
-store_enable                           0 # Enable stores for memory profiling
-accumulate_stats                       0 # Accumulate stats for the memory profiling
-dump_enable                            0 # Process dump enable flag - (def = 0)
-flush_l1d                              0 # Enable flushings for L1D caches - (default = 0)
-flush_l2                               0 # Enable flushings for L2 caches - (default = 0)
-flush_dram                             0 # Enable flushings for DRAM - (default = 0)
-flush_noncoalesceds                    0 # Enable flushings for non coalesced accesses - (default = 0)
-flush_shmems                           0 # Enable flushings for shared memory accesses - (default = 0)
-error_percentage          21474836480001 # Error percentage for the flushes - (default = 1)
-dump_sampling_cycle       21474836485000 # Dump sampling frequency - (default = 5000)
-flush_acc_type                         2 # Flush access types
-monitor_sampling_cycle                 5000 # Monitoring sampling cycle - (default = 5000)
DRAM Timing Options:
nbk                                    16 # number of banks
CCD                                     4 # column to column delay
RRD                                    12 # minimal delay between activation of rows in different banks
RCD                                    24 # row to column delay
RAS                                    55 # time needed to activate row
RP                                     24 # time needed to precharge (deactivate) row
RC                                     78 # row cycle time
CDLR                                   10 # switching from write to read (changes tWTR)
WR                                     24 # last data-in to row precharge
CL                                     24 # CAS latency
WL                                      8 # Write latency
nbkgrp                                  4 # number of bank groups
CCDL                                    6 # column to column delay between accesses to different bank groups
RTPL                                    4 # read to precharge delay between accesses to different bank groups
Total number of memory sub partition = 24
addr_dec_mask[CHIP]  = 0000000000000000 	high:64 low:0
addr_dec_mask[BK]    = 0000000000007080 	high:15 low:7
addr_dec_mask[ROW]   = 000000000fff8000 	high:28 low:15
addr_dec_mask[COL]   = 0000000000000f7f 	high:12 low:0
addr_dec_mask[BURST] = 000000000000001f 	high:5 low:0
sub_partition_id_mask = 0000000000000080
GPGPU-Sim uArch: clock freqs: 1365000000.000000:1365000000.000000:1365000000.000000:3500500000.000000
GPGPU-Sim uArch: clock periods: 0.00000000073260073260:0.00000000073260073260:0.00000000073260073260:0.00000000028567347522
*** Initializing Memory Statistics ***
GPGPU-Sim uArch: performance model initialization complete.
self exe links to: /home/pars/Documents/sim_11/cc_base
self exe links to: /home/pars/Documents/sim_11/cc_base
11.0
GPGPU-Sim PTX: __cudaRegisterFatBinary, fat_cubin_handle = 1, filename=default
self exe links to: /home/pars/Documents/sim_11/cc_base
Running md5sum using "md5sum /home/pars/Documents/sim_11/cc_base "
self exe links to: /home/pars/Documents/sim_11/cc_base
Extracting specific PTX file named cc_base.1.sm_75.ptx 
GPGPU-Sim PTX: __cudaRegisterFunction _Z8shortcutiPi : hostFun 0x0x5570c85fcdbb, fat_cubin_handle = 1
GPGPU-Sim PTX: Parsing cc_base.1.sm_75.ptx
GPGPU-Sim PTX: Warning -- ignoring pragma 'nounroll'
GPGPU-Sim PTX: instruction assembly for function '_Z4hookiPKmPKiPiPb'...   done.
GPGPU-Sim PTX: instruction assembly for function '_Z8shortcutiPi'...   done.
GPGPU-Sim PTX: finished parsing EMBEDDED .ptx file cc_base.1.sm_75.ptx
GPGPU-Sim PTX: loading globals with explicit initializers... 
GPGPU-Sim PTX: finished loading globals (0 bytes total).
GPGPU-Sim PTX: loading constants with explicit initializers...  done.
GPGPU-Sim PTX: Loading PTXInfo from cc_base.1.sm_75.ptx
GPGPU-Sim PTX: Kernel '_Z8shortcutiPi' : regs=12, lmem=0, smem=0, cmem=368
GPGPU-Sim PTX: Kernel '_Z4hookiPKmPKiPiPb' : regs=18, lmem=0, smem=0, cmem=392
GPGPU-Sim PTX: __cudaRegisterFunction _Z4hookiPKmPKiPiPb : hostFun 0x0x5570c85fcc40, fat_cubin_handle = 1
Connected Component by Xuhao Chen
Reading (.mtx) input file ../CudaBenchmarks/gardenia/datasets/new/sc-nasasrb.mtx
Removing redundent edges... 0 redundent edges are removed
|V| 54870 |E| 2622454
This graph is symmetrized
Launching CUDA CC solver (215 CTAs, 256 threads/CTA) ...
GPGPU-Sim PTX: Setting up arguments for 4 bytes starting at 0x7ffc5d30f4ec..
GPGPU-Sim PTX: Setting up arguments for 8 bytes starting at 0x7ffc5d30f4e0..
GPGPU-Sim PTX: Setting up arguments for 8 bytes starting at 0x7ffc5d30f4d8..
GPGPU-Sim PTX: Setting up arguments for 8 bytes starting at 0x7ffc5d30f4d0..
GPGPU-Sim PTX: Setting up arguments for 8 bytes starting at 0x7ffc5d30f4c8..

GPGPU-Sim PTX: cudaLaunch for 0x0x5570c85fcc40 (mode=performance simulation) on stream 0
GPGPU-Sim PTX: finding reconvergence points for '_Z4hookiPKmPKiPiPb'...
GPGPU-Sim PTX: Finding dominators for '_Z4hookiPKmPKiPiPb'...
GPGPU-Sim PTX: Finding immediate dominators for '_Z4hookiPKmPKiPiPb'...
GPGPU-Sim PTX: Finding postdominators for '_Z4hookiPKmPKiPiPb'...
GPGPU-Sim PTX: Finding immediate postdominators for '_Z4hookiPKmPKiPiPb'...
GPGPU-Sim PTX: pre-decoding instructions for '_Z4hookiPKmPKiPiPb'...
GPGPU-Sim PTX: reconvergence points for _Z4hookiPKmPKiPiPb...
GPGPU-Sim PTX:  1 (potential) branch divergence @  PC=0x068 (cc_base.1.sm_75.ptx:42) @%p1 bra $L__BB0_23;

GPGPU-Sim PTX:    immediate post dominator      @  PC=0x408 (cc_base.1.sm_75.ptx:201) ret;

GPGPU-Sim PTX:  2 (potential) branch divergence @  PC=0x0b8 (cc_base.1.sm_75.ptx:53) @%p2 bra $L__BB0_23;

GPGPU-Sim PTX:    immediate post dominator      @  PC=0x408 (cc_base.1.sm_75.ptx:201) ret;

GPGPU-Sim PTX:  3 (potential) branch divergence @  PC=0x0e0 (cc_base.1.sm_75.ptx:59) @%p3 bra $L__BB0_8;

GPGPU-Sim PTX:    immediate post dominator      @  PC=0x1b0 (cc_base.1.sm_75.ptx:97) not.b32 %r33, %r3;

GPGPU-Sim PTX:  4 (potential) branch divergence @  PC=0x130 (cc_base.1.sm_75.ptx:75) @%p4 bra $L__BB0_7;

GPGPU-Sim PTX:    immediate post dominator      @  PC=0x188 (cc_base.1.sm_75.ptx:90) add.s32 %r57, %r57, 1;

GPGPU-Sim PTX:  5 (potential) branch divergence @  PC=0x170 (cc_base.1.sm_75.ptx:84) @%p5 bra $L__BB0_7;

GPGPU-Sim PTX:    immediate post dominator      @  PC=0x188 (cc_base.1.sm_75.ptx:90) add.s32 %r57, %r57, 1;

GPGPU-Sim PTX:  6 (potential) branch divergence @  PC=0x1a8 (cc_base.1.sm_75.ptx:94) @%p6 bra $L__BB0_4;

GPGPU-Sim PTX:    immediate post dominator      @  PC=0x1b0 (cc_base.1.sm_75.ptx:97) not.b32 %r33, %r3;

GPGPU-Sim PTX:  7 (potential) branch divergence @  PC=0x1c8 (cc_base.1.sm_75.ptx:100) @%p7 bra $L__BB0_23;

GPGPU-Sim PTX:    immediate post dominator      @  PC=0x408 (cc_base.1.sm_75.ptx:201) ret;

GPGPU-Sim PTX:  8 (potential) branch divergence @  PC=0x210 (cc_base.1.sm_75.ptx:114) @%p8 bra $L__BB0_13;

GPGPU-Sim PTX:    immediate post dominator      @  PC=0x268 (cc_base.1.sm_75.ptx:129) ld.global.u32 %r41, [%rd42+4];

GPGPU-Sim PTX:  9 (potential) branch divergence @  PC=0x250 (cc_base.1.sm_75.ptx:123) @%p9 bra $L__BB0_13;

GPGPU-Sim PTX:    immediate post dominator      @  PC=0x268 (cc_base.1.sm_75.ptx:129) ld.global.u32 %r41, [%rd42+4];

GPGPU-Sim PTX: 10 (potential) branch divergence @  PC=0x290 (cc_base.1.sm_75.ptx:136) @%p10 bra $L__BB0_16;

GPGPU-Sim PTX:    immediate post dominator      @  PC=0x2e8 (cc_base.1.sm_75.ptx:151) ld.global.u32 %r46, [%rd42+8];

GPGPU-Sim PTX: 11 (potential) branch divergence @  PC=0x2d0 (cc_base.1.sm_75.ptx:145) @%p11 bra $L__BB0_16;

GPGPU-Sim PTX:    immediate post dominator      @  PC=0x2e8 (cc_base.1.sm_75.ptx:151) ld.global.u32 %r46, [%rd42+8];

GPGPU-Sim PTX: 12 (potential) branch divergence @  PC=0x310 (cc_base.1.sm_75.ptx:158) @%p12 bra $L__BB0_19;

GPGPU-Sim PTX:    immediate post dominator      @  PC=0x368 (cc_base.1.sm_75.ptx:173) ld.global.u32 %r51, [%rd42+12];

GPGPU-Sim PTX: 13 (potential) branch divergence @  PC=0x350 (cc_base.1.sm_75.ptx:167) @%p13 bra $L__BB0_19;

GPGPU-Sim PTX:    immediate post dominator      @  PC=0x368 (cc_base.1.sm_75.ptx:173) ld.global.u32 %r51, [%rd42+12];

GPGPU-Sim PTX: 14 (potential) branch divergence @  PC=0x390 (cc_base.1.sm_75.ptx:180) @%p14 bra $L__BB0_22;

GPGPU-Sim PTX:    immediate post dominator      @  PC=0x3e8 (cc_base.1.sm_75.ptx:195) add.s32 %r57, %r57, 4;

GPGPU-Sim PTX: 15 (potential) branch divergence @  PC=0x3d0 (cc_base.1.sm_75.ptx:189) @%p15 bra $L__BB0_22;

GPGPU-Sim PTX:    immediate post dominator      @  PC=0x3e8 (cc_base.1.sm_75.ptx:195) add.s32 %r57, %r57, 4;

GPGPU-Sim PTX: 16 (potential) branch divergence @  PC=0x400 (cc_base.1.sm_75.ptx:198) @%p16 bra $L__BB0_10;

GPGPU-Sim PTX:    immediate post dominator      @  PC=0x408 (cc_base.1.sm_75.ptx:201) ret;

GPGPU-Sim PTX: ... end of reconvergence points for _Z4hookiPKmPKiPiPb
GPGPU-Sim PTX: ... done pre-decoding instructions for '_Z4hookiPKmPKiPiPb'.
GPGPU-Sim PTX: pushing kernel '_Z4hookiPKmPKiPiPb' to stream 0, gridDim= (215,1,1) blockDim = (256,1,1) 
GPGPU-Sim uArch: Shader 0 bind to kernel 1 '_Z4hookiPKmPKiPiPb'
GPGPU-Sim uArch: CTA/core = 4, limited by: threads
GPGPU-Sim: Reconfigure L1 cache to 64KB
GPGPU-Sim uArch: Shader 1 bind to kernel 1 '_Z4hookiPKmPKiPiPb'
GPGPU-Sim uArch: Shader 2 bind to kernel 1 '_Z4hookiPKmPKiPiPb'
GPGPU-Sim uArch: Shader 3 bind to kernel 1 '_Z4hookiPKmPKiPiPb'
GPGPU-Sim uArch: Shader 4 bind to kernel 1 '_Z4hookiPKmPKiPiPb'
GPGPU-Sim uArch: Shader 5 bind to kernel 1 '_Z4hookiPKmPKiPiPb'
GPGPU-Sim uArch: Shader 6 bind to kernel 1 '_Z4hookiPKmPKiPiPb'
GPGPU-Sim uArch: Shader 7 bind to kernel 1 '_Z4hookiPKmPKiPiPb'
GPGPU-Sim uArch: Shader 8 bind to kernel 1 '_Z4hookiPKmPKiPiPb'
GPGPU-Sim uArch: Shader 9 bind to kernel 1 '_Z4hookiPKmPKiPiPb'
GPGPU-Sim uArch: Shader 10 bind to kernel 1 '_Z4hookiPKmPKiPiPb'
GPGPU-Sim uArch: Shader 11 bind to kernel 1 '_Z4hookiPKmPKiPiPb'
GPGPU-Sim uArch: Shader 12 bind to kernel 1 '_Z4hookiPKmPKiPiPb'
GPGPU-Sim uArch: Shader 13 bind to kernel 1 '_Z4hookiPKmPKiPiPb'
GPGPU-Sim uArch: Shader 14 bind to kernel 1 '_Z4hookiPKmPKiPiPb'
GPGPU-Sim uArch: Shader 15 bind to kernel 1 '_Z4hookiPKmPKiPiPb'
GPGPU-Sim uArch: Shader 16 bind to kernel 1 '_Z4hookiPKmPKiPiPb'
GPGPU-Sim uArch: Shader 17 bind to kernel 1 '_Z4hookiPKmPKiPiPb'
GPGPU-Sim uArch: Shader 18 bind to kernel 1 '_Z4hookiPKmPKiPiPb'
GPGPU-Sim uArch: Shader 19 bind to kernel 1 '_Z4hookiPKmPKiPiPb'
GPGPU-Sim uArch: Shader 20 bind to kernel 1 '_Z4hookiPKmPKiPiPb'
GPGPU-Sim uArch: Shader 21 bind to kernel 1 '_Z4hookiPKmPKiPiPb'
GPGPU-Sim uArch: Shader 22 bind to kernel 1 '_Z4hookiPKmPKiPiPb'
GPGPU-Sim uArch: Shader 23 bind to kernel 1 '_Z4hookiPKmPKiPiPb'
GPGPU-Sim uArch: Shader 24 bind to kernel 1 '_Z4hookiPKmPKiPiPb'
GPGPU-Sim uArch: Shader 25 bind to kernel 1 '_Z4hookiPKmPKiPiPb'
GPGPU-Sim uArch: Shader 26 bind to kernel 1 '_Z4hookiPKmPKiPiPb'
GPGPU-Sim uArch: Shader 27 bind to kernel 1 '_Z4hookiPKmPKiPiPb'
GPGPU-Sim uArch: Shader 28 bind to kernel 1 '_Z4hookiPKmPKiPiPb'
GPGPU-Sim uArch: Shader 29 bind to kernel 1 '_Z4hookiPKmPKiPiPb'
Destroy streams for kernel 1: size 0
kernel_name = _Z4hookiPKmPKiPiPb 
kernel_launch_uid = 1 
gpu_sim_cycle = 391998
gpu_sim_insn = 38606920
gpu_ipc =      98.4875
gpu_tot_sim_cycle = 391998
gpu_tot_sim_insn = 38606920
gpu_tot_ipc =      98.4875
gpu_tot_issued_cta = 215
gpu_occupancy = 92.1710% 
gpu_tot_occupancy = 92.1710% 
max_total_param_size = 0
gpu_stall_dramfull = 1184619
gpu_stall_icnt2sh    = 0
partiton_level_parallism =       6.5649
partiton_level_parallism_total  =       6.5649
partiton_level_parallism_util =       9.7589
partiton_level_parallism_util_total  =       9.7589
L2_BW  =     286.7541 GB/Sec
L2_BW_total  =     286.7541 GB/Sec
gpu_total_sim_rate=13003

========= Core cache stats =========
L1I_cache:
	L1I_total_cache_accesses = 0
	L1I_total_cache_misses = 0
	L1I_total_cache_pending_hits = 0
	L1I_total_cache_reservation_fails = 0
L1D_cache:
	L1D_cache_core[0]: Access = 100151, Miss = 56718, Miss_rate = 0.566, Pending_hits = 1053, Reservation_fails = 415001
	L1D_cache_core[1]: Access = 137987, Miss = 106326, Miss_rate = 0.771, Pending_hits = 1474, Reservation_fails = 571053
	L1D_cache_core[2]: Access = 122996, Miss = 88020, Miss_rate = 0.716, Pending_hits = 1420, Reservation_fails = 476414
	L1D_cache_core[3]: Access = 134758, Miss = 101226, Miss_rate = 0.751, Pending_hits = 1669, Reservation_fails = 591321
	L1D_cache_core[4]: Access = 118626, Miss = 80602, Miss_rate = 0.679, Pending_hits = 1436, Reservation_fails = 456463
	L1D_cache_core[5]: Access = 85307, Miss = 52278, Miss_rate = 0.613, Pending_hits = 942, Reservation_fails = 445637
	L1D_cache_core[6]: Access = 119942, Miss = 83494, Miss_rate = 0.696, Pending_hits = 1281, Reservation_fails = 518790
	L1D_cache_core[7]: Access = 97238, Miss = 59796, Miss_rate = 0.615, Pending_hits = 992, Reservation_fails = 508865
	L1D_cache_core[8]: Access = 102321, Miss = 57316, Miss_rate = 0.560, Pending_hits = 1013, Reservation_fails = 428752
	L1D_cache_core[9]: Access = 136529, Miss = 102304, Miss_rate = 0.749, Pending_hits = 1842, Reservation_fails = 565485
	L1D_cache_core[10]: Access = 133662, Miss = 97494, Miss_rate = 0.729, Pending_hits = 1594, Reservation_fails = 540359
	L1D_cache_core[11]: Access = 118241, Miss = 76120, Miss_rate = 0.644, Pending_hits = 1295, Reservation_fails = 435140
	L1D_cache_core[12]: Access = 133544, Miss = 99878, Miss_rate = 0.748, Pending_hits = 1763, Reservation_fails = 577600
	L1D_cache_core[13]: Access = 125824, Miss = 92108, Miss_rate = 0.732, Pending_hits = 1336, Reservation_fails = 522186
	L1D_cache_core[14]: Access = 120059, Miss = 86001, Miss_rate = 0.716, Pending_hits = 1273, Reservation_fails = 478380
	L1D_cache_core[15]: Access = 118751, Miss = 79262, Miss_rate = 0.667, Pending_hits = 1240, Reservation_fails = 505141
	L1D_cache_core[16]: Access = 137356, Miss = 104027, Miss_rate = 0.757, Pending_hits = 1681, Reservation_fails = 556630
	L1D_cache_core[17]: Access = 117364, Miss = 77436, Miss_rate = 0.660, Pending_hits = 1321, Reservation_fails = 453614
	L1D_cache_core[18]: Access = 118900, Miss = 85511, Miss_rate = 0.719, Pending_hits = 1686, Reservation_fails = 493091
	L1D_cache_core[19]: Access = 136867, Miss = 103858, Miss_rate = 0.759, Pending_hits = 1607, Reservation_fails = 537994
	L1D_cache_core[20]: Access = 119665, Miss = 81970, Miss_rate = 0.685, Pending_hits = 1464, Reservation_fails = 450615
	L1D_cache_core[21]: Access = 116418, Miss = 81650, Miss_rate = 0.701, Pending_hits = 1491, Reservation_fails = 535473
	L1D_cache_core[22]: Access = 136813, Miss = 104197, Miss_rate = 0.762, Pending_hits = 1646, Reservation_fails = 568171
	L1D_cache_core[23]: Access = 101624, Miss = 60760, Miss_rate = 0.598, Pending_hits = 1076, Reservation_fails = 424844
	L1D_cache_core[24]: Access = 116218, Miss = 76846, Miss_rate = 0.661, Pending_hits = 1407, Reservation_fails = 483814
	L1D_cache_core[25]: Access = 120576, Miss = 84956, Miss_rate = 0.705, Pending_hits = 1499, Reservation_fails = 460251
	L1D_cache_core[26]: Access = 135786, Miss = 97577, Miss_rate = 0.719, Pending_hits = 1505, Reservation_fails = 476933
	L1D_cache_core[27]: Access = 133779, Miss = 98836, Miss_rate = 0.739, Pending_hits = 1746, Reservation_fails = 581486
	L1D_cache_core[28]: Access = 119495, Miss = 84183, Miss_rate = 0.704, Pending_hits = 1385, Reservation_fails = 477968
	L1D_cache_core[29]: Access = 133337, Miss = 97941, Miss_rate = 0.735, Pending_hits = 1717, Reservation_fails = 521140
	L1D_total_cache_accesses = 3650134
	L1D_total_cache_misses = 2558691
	L1D_total_cache_miss_rate = 0.7010
	L1D_total_cache_pending_hits = 42854
	L1D_total_cache_reservation_fails = 15058611
	L1D_cache_data_port_util = 0.098
	L1D_cache_fill_port_util = 0.238
L1C_cache:
	L1C_total_cache_accesses = 0
	L1C_total_cache_misses = 0
	L1C_total_cache_pending_hits = 0
	L1C_total_cache_reservation_fails = 0
L1T_cache:
	L1T_total_cache_accesses = 0
	L1T_total_cache_misses = 0
	L1T_total_cache_pending_hits = 0
	L1T_total_cache_reservation_fails = 0

Total_core_cache_stats:
	Total_core_cache_stats_breakdown[GLOBAL_ACC_R][HIT] = 1033859
	Total_core_cache_stats_breakdown[GLOBAL_ACC_R][HIT_RESERVED] = 42854
	Total_core_cache_stats_breakdown[GLOBAL_ACC_R][MISS] = 2328255
	Total_core_cache_stats_breakdown[GLOBAL_ACC_R][RESERVATION_FAIL] = 15058409
	Total_core_cache_stats_breakdown[GLOBAL_ACC_R][SECTOR_MISS] = 230378
	Total_core_cache_stats_breakdown[GLOBAL_ACC_R][MSHR_HIT] = 42854
	Total_core_cache_stats_breakdown[LOCAL_ACC_R][HIT] = 0
	Total_core_cache_stats_breakdown[LOCAL_ACC_R][HIT_RESERVED] = 0
	Total_core_cache_stats_breakdown[LOCAL_ACC_R][MISS] = 0
	Total_core_cache_stats_breakdown[LOCAL_ACC_R][RESERVATION_FAIL] = 0
	Total_core_cache_stats_breakdown[LOCAL_ACC_R][SECTOR_MISS] = 0
	Total_core_cache_stats_breakdown[LOCAL_ACC_R][MSHR_HIT] = 0
	Total_core_cache_stats_breakdown[CONST_ACC_R][HIT] = 0
	Total_core_cache_stats_breakdown[CONST_ACC_R][HIT_RESERVED] = 0
	Total_core_cache_stats_breakdown[CONST_ACC_R][MISS] = 0
	Total_core_cache_stats_breakdown[CONST_ACC_R][RESERVATION_FAIL] = 0
	Total_core_cache_stats_breakdown[CONST_ACC_R][SECTOR_MISS] = 0
	Total_core_cache_stats_breakdown[CONST_ACC_R][MSHR_HIT] = 0
	Total_core_cache_stats_breakdown[TEXTURE_ACC_R][HIT] = 0
	Total_core_cache_stats_breakdown[TEXTURE_ACC_R][HIT_RESERVED] = 0
	Total_core_cache_stats_breakdown[TEXTURE_ACC_R][MISS] = 0
	Total_core_cache_stats_breakdown[TEXTURE_ACC_R][RESERVATION_FAIL] = 0
	Total_core_cache_stats_breakdown[TEXTURE_ACC_R][SECTOR_MISS] = 0
	Total_core_cache_stats_breakdown[TEXTURE_ACC_R][MSHR_HIT] = 0
	Total_core_cache_stats_breakdown[GLOBAL_ACC_W][HIT] = 14730
	Total_core_cache_stats_breakdown[GLOBAL_ACC_W][HIT_RESERVED] = 0
	Total_core_cache_stats_breakdown[GLOBAL_ACC_W][MISS] = 37
	Total_core_cache_stats_breakdown[GLOBAL_ACC_W][RESERVATION_FAIL] = 202
	Total_core_cache_stats_breakdown[GLOBAL_ACC_W][SECTOR_MISS] = 21
	Total_core_cache_stats_breakdown[GLOBAL_ACC_W][MSHR_HIT] = 0
	Total_core_cache_stats_breakdown[LOCAL_ACC_W][HIT] = 0
	Total_core_cache_stats_breakdown[LOCAL_ACC_W][HIT_RESERVED] = 0
	Total_core_cache_stats_breakdown[LOCAL_ACC_W][MISS] = 0
	Total_core_cache_stats_breakdown[LOCAL_ACC_W][RESERVATION_FAIL] = 0
	Total_core_cache_stats_breakdown[LOCAL_ACC_W][SECTOR_MISS] = 0
	Total_core_cache_stats_breakdown[LOCAL_ACC_W][MSHR_HIT] = 0
	Total_core_cache_stats_breakdown[L1_WRBK_ACC][HIT] = 0
	Total_core_cache_stats_breakdown[L1_WRBK_ACC][HIT_RESERVED] = 0
	Total_core_cache_stats_breakdown[L1_WRBK_ACC][MISS] = 0
	Total_core_cache_stats_breakdown[L1_WRBK_ACC][RESERVATION_FAIL] = 0
	Total_core_cache_stats_breakdown[L1_WRBK_ACC][SECTOR_MISS] = 0
	Total_core_cache_stats_breakdown[L1_WRBK_ACC][MSHR_HIT] = 0
	Total_core_cache_stats_breakdown[L2_WRBK_ACC][HIT] = 0
	Total_core_cache_stats_breakdown[L2_WRBK_ACC][HIT_RESERVED] = 0
	Total_core_cache_stats_breakdown[L2_WRBK_ACC][MISS] = 0
	Total_core_cache_stats_breakdown[L2_WRBK_ACC][RESERVATION_FAIL] = 0
	Total_core_cache_stats_breakdown[L2_WRBK_ACC][SECTOR_MISS] = 0
	Total_core_cache_stats_breakdown[L2_WRBK_ACC][MSHR_HIT] = 0
	Total_core_cache_stats_breakdown[INST_ACC_R][HIT] = 0
	Total_core_cache_stats_breakdown[INST_ACC_R][HIT_RESERVED] = 0
	Total_core_cache_stats_breakdown[INST_ACC_R][MISS] = 0
	Total_core_cache_stats_breakdown[INST_ACC_R][RESERVATION_FAIL] = 0
	Total_core_cache_stats_breakdown[INST_ACC_R][SECTOR_MISS] = 0
	Total_core_cache_stats_breakdown[INST_ACC_R][MSHR_HIT] = 0
	Total_core_cache_stats_breakdown[L1_WR_ALLOC_R][HIT] = 0
	Total_core_cache_stats_breakdown[L1_WR_ALLOC_R][HIT_RESERVED] = 0
	Total_core_cache_stats_breakdown[L1_WR_ALLOC_R][MISS] = 0
	Total_core_cache_stats_breakdown[L1_WR_ALLOC_R][RESERVATION_FAIL] = 0
	Total_core_cache_stats_breakdown[L1_WR_ALLOC_R][SECTOR_MISS] = 0
	Total_core_cache_stats_breakdown[L1_WR_ALLOC_R][MSHR_HIT] = 0
	Total_core_cache_stats_breakdown[L2_WR_ALLOC_R][HIT] = 0
	Total_core_cache_stats_breakdown[L2_WR_ALLOC_R][HIT_RESERVED] = 0
	Total_core_cache_stats_breakdown[L2_WR_ALLOC_R][MISS] = 0
	Total_core_cache_stats_breakdown[L2_WR_ALLOC_R][RESERVATION_FAIL] = 0
	Total_core_cache_stats_breakdown[L2_WR_ALLOC_R][SECTOR_MISS] = 0
	Total_core_cache_stats_breakdown[L2_WR_ALLOC_R][MSHR_HIT] = 0
	Total_core_cache_stats_breakdown[GLOBAL_ACC_R][TOTAL_ACCESS] = 3635346
	Total_core_cache_stats_breakdown[GLOBAL_ACC_W][TOTAL_ACCESS] = 14788

Total_core_cache_fail_stats:
	Total_core_cache_fail_stats_breakdown[GLOBAL_ACC_R][MISS_QUEUE_FULL] = 921601
	Total_core_cache_fail_stats_breakdown[GLOBAL_ACC_R][MSHR_ENRTY_FAIL] = 14136808
	Total_core_cache_fail_stats_breakdown[GLOBAL_ACC_W][MISS_QUEUE_FULL] = 202
ctas_completed 215, Shader 0 warp_id issue ditsribution:
warp_id:
0, 1, 2, 3, 4, 5, 6, 7, 8, 9, 10, 11, 12, 13, 14, 15, 16, 17, 18, 19, 20, 21, 22, 23, 24, 25, 26, 27, 28, 29, 30, 31, 
distro:
4180, 662, 662, 662, 662, 662, 662, 662, 863, 863, 842, 863, 863, 882, 882, 863, 1764, 1745, 1764, 1745, 1726, 1726, 1745, 1764, 1745, 1726, 1764, 1726, 1726, 1764, 1745, 1745, 
gpgpu_n_tot_thrd_icount = 48275552
gpgpu_n_tot_w_icount = 1508611
gpgpu_n_stall_shd_mem = 3252034
gpgpu_n_mem_read_local = 0
gpgpu_n_mem_write_local = 0
gpgpu_n_mem_read_global = 2558633
gpgpu_n_mem_write_global = 14788
gpgpu_n_mem_texture = 0
gpgpu_n_mem_const = 0
gpgpu_n_load_insn  = 7989608
gpgpu_n_store_insn = 110052
gpgpu_n_shmem_insn = 0
gpgpu_n_sstarr_insn = 0
gpgpu_n_tex_insn = 0
gpgpu_n_const_mem_insn = 0
gpgpu_n_param_mem_insn = 275200
gpgpu_n_shmem_bkconflict = 0
gpgpu_n_cache_bkconflict = 0
gpgpu_n_intrawarp_mshr_merge = 0
gpgpu_n_cmem_portconflict = 0
gpgpu_stall_shd_mem[c_mem][resource_stall] = 0
gpgpu_stall_shd_mem[s_mem][bk_conf] = 0
gpgpu_stall_shd_mem[gl_mem][resource_stall] = 3029686
gpgpu_stall_shd_mem[gl_mem][coal_stall] = 222348
gpgpu_stall_shd_mem[gl_mem][data_port_stall] = 0
gpu_reg_bank_conflict_stalls = 0
Warp Occupancy Distribution:
Stall:617588	W0_Idle:466932	W0_Scoreboard:40368845	W1:5103	W2:6939	W3:4580	W4:7863	W5:8674	W6:13095	W7:9825	W8:8939	W9:11019	W10:22737	W11:28356	W12:8016	W13:8438	W14:13858	W15:10820	W16:8708	W17:16645	W18:12600	W19:10841	W20:17685	W21:12031	W22:13184	W23:12979	W24:13470	W25:15913	W26:45268	W27:74519	W28:64864	W29:77094	W30:73194	W31:72789	W32:798565
single_issue_nums: WS0:379020	WS1:374626	WS2:378336	WS3:376629	
dual_issue_nums: WS0:0	WS1:0	WS2:0	WS3:0	
traffic_breakdown_coretomem[GLOBAL_ACC_R] = 20469064 {8:2558633,}
traffic_breakdown_coretomem[GLOBAL_ACC_W] = 591520 {40:14788,}
traffic_breakdown_memtocore[GLOBAL_ACC_R] = 102345320 {40:2558633,}
traffic_breakdown_memtocore[GLOBAL_ACC_W] = 118304 {8:14788,}
maxmflatency = 8450 
max_icnt2mem_latency = 4972 
maxmrqlatency = 6177 
max_icnt2sh_latency = 506 
averagemflatency = 1038 
avg_icnt2mem_latency = 497 
avg_mrq_latency = 163 
avg_icnt2sh_latency = 10 
mrq_lat_table:192844 	7956 	17680 	36124 	71108 	121601 	208730 	322557 	237935 	23421 	6750 	3574 	116 	0 	0 	0 	0 	0 	0 	0 	0 	0 	0 	0 	0 	0 	0 	0 	0 	0 	0 	0 	
dq_lat_table:0 	0 	0 	0 	0 	0 	0 	0 	0 	0 	0 	0 	0 	0 	0 	0 	0 	0 	0 	0 	0 	0 	0 	0 	0 	0 	0 	0 	0 	0 	0 	0 	
mf_lat_table:0 	0 	0 	0 	0 	0 	0 	140202 	943224 	435309 	793050 	211360 	50269 	7 	0 	0 	0 	0 	0 	0 	0 	0 	0 	0 	0 	0 	0 	0 	0 	0 	0 	0 	
icnt2mem_lat_table:0 	0 	0 	0 	0 	452997 	424737 	456634 	309316 	600189 	247839 	80925 	784 	0 	0 	0 	0 	0 	0 	0 	0 	0 	0 	0 	
icnt2sh_lat_table:0 	1603122 	318874 	267065 	196558 	111562 	57584 	15123 	3533 	0 	0 	0 	0 	0 	0 	0 	0 	0 	0 	0 	0 	0 	0 	0 	
mf_lat_pw_table:0 	0 	0 	0 	0 	0 	0 	0 	118 	14 	250 	4 	0 	0 	0 	0 	0 	0 	0 	0 	0 	0 	0 	0 	0 	0 	0 	0 	0 	0 	0 	0 	
maximum concurrent accesses to same row:
dram[0]:        64        60        50        52        60        62        64        64        64        64        14        36        14        22        26        24 
dram[1]:        64        64        58        58        54        54        60        60        64        64        16        33        17        17        22        35 
dram[2]:        59        61        50        50        48        48        64        64        63        64        24        24        15        16        26        19 
dram[3]:        64        64        58        58        61        55        64        61        64        64        24        16        18        11        18        23 
dram[4]:        64        59        59        46        52        64        59        61        64        64        21        24        15        18        14        28 
dram[5]:        64        64        60        58        56        56        58        62        64        64        20        20        24        12        16        22 
dram[6]:        60        63        54        54        48        48        64        64        64        64        31        20        17        12        16        36 
dram[7]:        64        64        58        58        60        64        64        64        62        64        32        32        16        14        29        20 
dram[8]:        59        59        49        58        59        59        64        60        64        64        15        13        10        17        18        16 
dram[9]:        64        64        49        49        51        52        58        62        62        64        17        28        12        14        19        30 
dram[10]:        60        64        34        36        48        48        64        64        63        64        23        24        19        16        26        26 
dram[11]:        64        64        49        49        54        60        63        64        51        60        36        25        14        16        19        20 
maximum service time to same row:
dram[0]:      6872      6797      6575      6576      6784      6849      6924      6982      7027      7135      6887      6880      6907      6896      6778      6778 
dram[1]:      6618      6862      6561      6587      6601      6601      6781      7830      7025      7078      6678      6669     13056      6783      6668      6763 
dram[2]:      6629      6677      6672      6674      6677      6626      6874      9278      6926      7120      6676      6676      6758      6761      6670      6676 
dram[3]:      6702      6713      6593      6641      6777      6709     19901      6975      7080      7228      6886      6759      6838      6886      6779      6735 
dram[4]:      6865      6718      6775      6520      6701      6869      6898      6927      7066      7096      6776      6782      6874      6856      6817      6753 
dram[5]:      6669      6633      6464      6446      6662      6668      6849      6919      7023      7085      6776      6665      6804      6826      6659      6802 
dram[6]:      6731      6743      6713      6724      6775      6729     11088     21152      7021      7088      6766      6737      6865      6827      6729      6774 
dram[7]:      6717     10092      6609      6591      6733      6827      6972      7002      7111      7238      6738      6829      6935      6877      6721      6716 
dram[8]:      6726      6748      6528      6701      6761      6752      6945      6899      7056      7143      6760      6754      6871      6867      6865      6747 
dram[9]:      6590      6700      6426      6428      6583      6610      6879      6942      7071      7141      6593      6698      6734      6793      6657      6559 
dram[10]:      6628      6754      6517      6569      6697      6616      6776     17636      7027      7067      6614      6614      6756      6779      6615      6697 
dram[11]:      6759      6685      6548      6551      6681      6779     26542      7029      6685      6657      6678      6684      6822      6891      6676      6730 
average row accesses per activate:
dram[0]:  1.659462  1.606054  1.419174  1.417133  1.410194  1.437903  1.369832  1.388422  1.427674  1.385087  1.393504  1.396105  1.502649  1.533604  1.691963  1.674046 
dram[1]:  1.573453  1.620927  1.472930  1.466636  1.419405  1.439030  1.395397  1.418056  1.428208  1.400000  1.404998  1.407046  1.488336  1.522973  1.626872  1.664702 
dram[2]:  1.606857  1.614735  1.473880  1.529020  1.432481  1.466711  1.391626  1.421183  1.390761  1.434355  1.401230  1.408097  1.487313  1.547254  1.632490  1.612167 
dram[3]:  1.540166  1.620769  1.428766  1.487833  1.422237  1.412101  1.427771  1.408684  1.392207  1.403811  1.402054  1.433246  1.483785  1.494859  1.613457  1.638978 
dram[4]:  1.628823  1.630780  1.466667  1.448846  1.431584  1.431264  1.383681  1.400046  1.404648  1.397874  1.405996  1.419088  1.511283  1.482728  1.618710  1.630254 
dram[5]:  1.581793  1.605802  1.466636  1.478469  1.429644  1.439626  1.434256  1.403676  1.402674  1.411016  1.421970  1.394450  1.480877  1.487542  1.610649  1.618198 
dram[6]:  1.607799  1.496405  1.467189  1.436847  1.462492  1.402988  1.440093  1.374019  1.411281  1.386331  1.406062  1.390974  1.490271  1.446898  1.631685  1.572044 
dram[7]:  1.770410  1.628451  1.520882  1.425480  1.503037  1.403279  1.456904  1.363034  1.431921  1.370998  1.439354  1.359442  1.600084  1.522257  1.758096  1.592021 
dram[8]:  1.650328  1.603530  1.475225  1.471165  1.440126  1.433611  1.394617  1.388751  1.391927  1.430896  1.407505  1.400649  1.520145  1.495337  1.595740  1.637576 
dram[9]:  1.622521  1.611252  1.507578  1.496176  1.402615  1.420470  1.408569  1.383772  1.418401  1.404426  1.428400  1.397947  1.526339  1.481382  1.593235  1.646653 
dram[10]:  1.637521  1.580599  1.493819  1.472781  1.401682  1.403130  1.424751  1.374137  1.420680  1.408965  1.367925  1.382661  1.510764  1.500336  1.593873  1.609333 
dram[11]:  1.568942  1.655254  1.470892  1.492507  1.437810  1.447043  1.411765  1.423682  1.408126  1.443363  1.414831  1.400830  1.553005  1.503217  1.628845  1.642825 
average row locality = 1250396/842519 = 1.484116
number of total memory accesses made:
dram[0]:         0         0         0         0         0         0         0         0         0         0         0         0         0         0         0         0 
dram[1]:         0         0         0         0         0         0         0         0         0         0         0         0         0         0         0         0 
dram[2]:         0         0         0         0         0         0         0         0         0         0         0         0         0         0         0         0 
dram[3]:         0         0         0         0         0         0         0         0         0         0         0         0         0         0         0         0 
dram[4]:         0         0         0         0         0         0         0         0         0         0         0         0         0         0         0         0 
dram[5]:         0         0         0         0         0         0         0         0         0         0         0         0         0         0         0         0 
dram[6]:         0         0         0         0         0         0         0         0         0         0         0         0         0         0         0         0 
dram[7]:         0         0         0         0         0         0         0         0         0         0         0         0         0         0         0         0 
dram[8]:         0         0         0         0         0         0         0         0         0         0         0         0         0         0         0         0 
dram[9]:         0         0         0         0         0         0         0         0         0         0         0         0         0         0         0         0 
dram[10]:         0         0         0         0         0         0         0         0         0         0         0         0         0         0         0         0 
dram[11]:         0         0         0         0         0         0         0         0         0         0         0         0         0         0         0         0 
total accesses: 0
min_bank_accesses = 0!
min_chip_accesses = 0!
number of total read accesses:
dram[0]:      7197      7036      6304      6319      6384      6462      6030      6116      6139      5870      5921      5879      6797      6789      7537      7387 
dram[1]:      6969      7043      6456      6400      6377      6398      6123      6126      6177      5915      5960      5911      6625      6751      7256      7319 
dram[2]:      7009      7058      6331      6649      6322      6624      6016      6320      5901      6271      5923      6052      6555      6946      7142      7185 
dram[3]:      6649      7018      6295      6464      6440      6407      6118      6132      5967      6115      5869      6001      6670      6675      7122      7158 
dram[4]:      7008      7067      6407      6384      6373      6445      6037      6121      6165      6050      6050      6007      6618      6728      7275      7234 
dram[5]:      6913      6950      6402      6472      6461      6463      6163      6033      5981      6097      5877      5879      6610      6617      7147      7148 
dram[6]:      7154      6432      6533      6039      6598      6185      6214      5775      6005      5781      5845      5671      6653      6215      7243      6548 
dram[7]:      7823      6933      7158      6374      7167      6408      6795      5966      6657      5909      6598      5745      7621      6757      8171      7203 
dram[8]:      7007      7054      6384      6591      6399      6532      6114      6148      5931      6243      5889      6041      6703      6723      7168      7220 
dram[9]:      6848      6960      6449      6440      6318      6275      6016      5935      5997      5966      5945      5856      6827      6632      7139      7134 
dram[10]:      6921      6574      6630      6505      6492      6358      6286      5972      6224      6098      5945      5933      6864      6676      7263      7119 
dram[11]:      6913      6990      6527      6656      6371      6423      6216      6156      6100      6231      5972      6074      6886      6761      7283      7326 
total dram reads = 1248364
bank skew: 8171/5671 = 1.44
chip skew: 109285/100891 = 1.08
number of total write accesses:
dram[0]:        80        81        65        66        27        40         0         0         0         0         0         0        40        41        81        85 
dram[1]:        95        81        72        70        43        40         0         0         0         0         0         0        40        43        78        92 
dram[2]:        83        79        68        63        44        28         0         0         0         0         0         0        40        45        82        83 
dram[3]:        82        78        52        67        28        44         0         0         0         0         0         0        40        47        88        93 
dram[4]:        86        86        68        66        36        40         0         0         0         0         0         0        42        42        93        71 
dram[5]:        78        91        62        65        42        41         0         0         0         0         0         0        41        40        83        73 
dram[6]:        75        73        65        52        43        47         0         0         0         0         0         0        40        43        70        78 
dram[7]:        89        93        63        59        40        45         0         0         0         0         0         0        50        51        96        75 
dram[8]:        93        98        68        62        44        44         0         0         0         0         0         0        49        45        85        82 
dram[9]:        82       107        66        61        45        48         0         0         0         0         0         0        44        47        81        89 
dram[10]:        84        84        61        60        36        32         0         0         0         0         0         0        49        54        78        73 
dram[11]:        89        76        67        66        39        45         0         0         0         0         0         0        55        52        90        93 
total dram writes = 7610
min_bank_accesses = 0!
chip skew: 672/586 = 1.15
average mf latency per bank:
dram[0]:       3384      2318      3162      2145      3195      2166      3174      2174      3337      2233      3297      2299      3270      2304      3362      2341
dram[1]:       1887      1942      1798      1827      2048      1817      1770      1783      1832      1859      1846      1865      1884      1863      1921      1919
dram[2]:       2017      2409      1903      2204      1961      2174      1899      2159      1972      2230      1961      2217      2035      2300      2061      2427
dram[3]:       2051      1851      1863      1722      1872      1742      1831      1764      1907      1809      1914      1798      1948      1821      2083      1869
dram[4]:       2297      1976      2162      1831      2128      1869      2157      1832      2248      1919      2259      1904      2265      1906      2259      1990
dram[5]:       1809      1733      1671      1640      1710      1657      1673      1647      1741      1708      1752      1708      1778      1722      1829      1738
dram[6]:       1704      1930      1654      1777      1684      1737      1658      1711      1713      1789      1727      1789      1738      1863      1792      1984
dram[7]:       4744      2384      4284      2204      4212      2200      4305      2211      4421      2287      4449      2302      4508      2306      4738      2407
dram[8]:       1995      1762      1885      1698      1862      1681      1857      1705      1950      1744      1953      1742      1978      1772      1990      1821
dram[9]:       2134      1843      1966      1760      1980      1816      1991      1769      2012      1813      2060      1837      2017      1813      2094      1898
dram[10]:       2358      2207      2177      1915      2164      1923      2203      1903      2195      1960      2288      1961      2205      2036      2312      2135
dram[11]:       1906      2129      1758      1929      1772      1961      1737      1938      1791      1990      1822      2011      1891      2028      1929      2062
maximum mf latency per bank:
dram[0]:       7353      7259      5696      4214      5932      4123      6028      4166      6017      4025      5811      3961      5986      5518      7948      5752
dram[1]:       3603      6288      4333      5980      3447      3446      3074      3316      3781      3536      3121      3527      4924      4040      5081      6651
dram[2]:       4336      6985      3354      4073      5328      4491      3330      4261      3310      4278      3395      4251      4945      6318      4631      6453
dram[3]:       4616      4844      3462      3597      3629      3378      3591      3357      3555      3400      3631      3498      3694      3655      5432      4157
dram[4]:       6567      6039      4309      4008      4404      3700      4474      3881      4632      3618      4381      4003      5596      3604      5039      6291
dram[5]:       3357      3370      3684      3608      3241      3630      3702      3251      3528      3710      3458      3363      3634      4255      3767      3420
dram[6]:       3369      4191      5299      4624      3656      3483      3201      3486      3372      3487      3939      3402      4219      3486      4861      6072
dram[7]:       8366      5837      6148      4482      6147      4439      6177      4384      5901      4352      6017      4082      7599      7441      8450      6743
dram[8]:       5516      3674      3805      3349      3701      3370      3475      3384      3728      3155      3692      3280      4563      4758      4199      4350
dram[9]:       7064      4855      7144      3944      3722      4488      3724      3289      3736      3399      3749      3716      3736      3552      3901      4437
dram[10]:       6793      5614      4981      3480      4942      3652      4908      3381      4857      3477      4772      3709      5322      5093      5298      5206
dram[11]:       4992      6729      3623      4005      3535      3894      3412      4060      3585      3982      3652      3940      4934      4501      4044      4806

Number of Memory Banks Accessed per Memory Operation per Warp (from 0):
0	0	0	0	0	0	0	0	0	0	0	0	0	0	0	0	0	0	0	0	0	0	0	0	0	0	0	0	0	0	0	0	0	0	0	0	0	0	0	0	0	0	0	0	0	0	0	0	0	0	0	0	0	0	0	0	0	0	0	0	0	0	0	0	0	0	0	0	0	0	0	0	0	0	0	0	0	0	0	0	0	0	0	0	0	0	0	0	0	0	0	0	0	0	0	0	0	0	0	0	0	0	0	0	0	0	0	0	0	0	0	0	0	0	0	0	0	0	0	0	0	0	0	0	0	0	0	0	0	0	0	0	0	0	0	0	0	0	0	0	0	0	0	0	0	0	0	0	0	0	0	0	0	0	0	0	0	0	0	0	0	0	0	0	0	0	0	0	0	0	0	0	0	0	0	0	0	0	0	0	0	0	0	0	0	0	0	0	0	0	0	0	
Average # of Memory Banks Accessed per Memory Operation per Warp=-nan

position of mrq chosen
0	0	0	0	0	0	0	0	0	0	0	0	0	0	0	0	0	0	0	0	0	0	0	0	0	0	0	0	0	0	0	0	0	0	0	0	0	0	0	0	0	0	0	0	0	0	0	0	0	0	0	0	0	0	0	0	0	0	0	0	0	0	0	0	

average position of mrq chosen = -nan
Memory Partition 0: 
Cache L2_bank_000:
MSHR contents

Cache L2_bank_001:
MSHR contents

In Dram Latency Queue (total = 0): 
DRAM[0]: 16 bks, busW=2 BL=16 CL=24, tRRD=12 tCCD=4, tRCD=24 tRAS=55 tRP=24 tRC=78
n_cmd=1005265 n_nop=797049 n_act=70374 n_pre=70358 n_ref_event=0 n_req=104325 n_rd=104167 n_rd_L2_A=0 n_write=0 n_wr_bk=606 bw_util=0.4169
n_activity=912913 dram_eff=0.4591
bk0: 7197a 298986i bk1: 7036a 297747i bk2: 6304a 311450i bk3: 6319a 325459i bk4: 6384a 306725i bk5: 6462a 318123i bk6: 6030a 334547i bk7: 6116a 329912i bk8: 6139a 339037i bk9: 5870a 353702i bk10: 5921a 351101i bk11: 5879a 346461i bk12: 6797a 304326i bk13: 6789a 297653i bk14: 7537a 278363i bk15: 7387a 282882i 

------------------------------------------------------------------------

Row_Buffer_Locality = 0.325531
Row_Buffer_Locality_read = 0.325554
Row_Buffer_Locality_write = 0.310127
Bank_Level_Parallism = 12.300840
Bank_Level_Parallism_Col = 2.436270
Bank_Level_Parallism_Ready = 1.117855
write_to_read_ratio_blp_rw_average = 0.051342
GrpLevelPara = 2.094321 

BW Util details:
bwutil = 0.416897 
total_CMD = 1005265 
util_bw = 419092 
Wasted_Col = 467659 
Wasted_Row = 17091 
Idle = 101423 

BW Util Bottlenecks: 
RCDc_limit = 899742 
RCDWRc_limit = 729 
WTRc_limit = 11850 
RTWc_limit = 84419 
CCDLc_limit = 120807 
rwq = 0 
CCDLc_limit_alone = 114668 
WTRc_limit_alone = 11306 
RTWc_limit_alone = 78824 

Commands details: 
total_CMD = 1005265 
n_nop = 797049 
Read = 104167 
Write = 0 
L2_Alloc = 0 
L2_WB = 606 
n_act = 70374 
n_pre = 70358 
n_ref = 0 
n_req = 104325 
total_req = 104773 

Dual Bus Interface Util: 
issued_total_row = 140732 
issued_total_col = 104773 
Row_Bus_Util =  0.139995 
CoL_Bus_Util = 0.104224 
Either_Row_CoL_Bus_Util = 0.207125 
Issued_on_Two_Bus_Simul_Util = 0.037094 
issued_two_Eff = 0.179088 
queue_avg = 42.895370 


dram_util_bins: 0 0 0 0 0 0 0 0 0 0
dram_eff_bins: 0 0 0 0 0 0 0 0 0 0
mrqq: max=64 avg=42.8954
Memory Partition 1: 
Cache L2_bank_002:
MSHR contents

Cache L2_bank_003:
MSHR contents

In Dram Latency Queue (total = 0): 
DRAM[1]: 16 bks, busW=2 BL=16 CL=24, tRRD=12 tCCD=4, tRCD=24 tRAS=55 tRP=24 tRC=78
n_cmd=1005265 n_nop=799314 n_act=70025 n_pre=70009 n_ref_event=0 n_req=103981 n_rd=103806 n_rd_L2_A=0 n_write=0 n_wr_bk=654 bw_util=0.4157
n_activity=909497 dram_eff=0.4594
bk0: 6969a 304603i bk1: 7043a 310524i bk2: 6456a 318519i bk3: 6400a 307282i bk4: 6377a 319032i bk5: 6398a 322577i bk6: 6123a 342574i bk7: 6126a 341663i bk8: 6177a 335765i bk9: 5915a 355474i bk10: 5960a 351727i bk11: 5911a 353240i bk12: 6625a 302679i bk13: 6751a 307524i bk14: 7256a 281345i bk15: 7319a 288473i 

------------------------------------------------------------------------

Row_Buffer_Locality = 0.326656
Row_Buffer_Locality_read = 0.326465
Row_Buffer_Locality_write = 0.440000
Bank_Level_Parallism = 12.281108
Bank_Level_Parallism_Col = 1.000000
Bank_Level_Parallism_Ready = 1.117648
write_to_read_ratio_blp_rw_average = 0.000000
GrpLevelPara = 0.000000 

BW Util details:
bwutil = 0.415652 
total_CMD = 1005265 
util_bw = 417840 
Wasted_Col = 464146 
Wasted_Row = 17866 
Idle = 105413 

BW Util Bottlenecks: 
RCDc_limit = 892734 
RCDWRc_limit = 672 
WTRc_limit = 11606 
RTWc_limit = 102996 
CCDLc_limit = 123730 
rwq = 0 
CCDLc_limit_alone = 116234 
WTRc_limit_alone = 10995 
RTWc_limit_alone = 96111 

Commands details: 
total_CMD = 1005265 
n_nop = 799314 
Read = 103806 
Write = 0 
L2_Alloc = 0 
L2_WB = 654 
n_act = 70025 
n_pre = 70009 
n_ref = 0 
n_req = 103981 
total_req = 104460 

Dual Bus Interface Util: 
issued_total_row = 140034 
issued_total_col = 104460 
Row_Bus_Util =  0.139301 
CoL_Bus_Util = 0.103913 
Either_Row_CoL_Bus_Util = 0.204872 
Issued_on_Two_Bus_Simul_Util = 0.038341 
issued_two_Eff = 0.187146 
queue_avg = 42.837936 


dram_util_bins: 0 0 0 0 0 0 0 0 0 0
dram_eff_bins: 0 0 0 0 0 0 0 0 0 0
mrqq: max=64 avg=42.8379
Memory Partition 2: 
Cache L2_bank_004:
MSHR contents

Cache L2_bank_005:
MSHR contents

In Dram Latency Queue (total = 0): 
DRAM[2]: 16 bks, busW=2 BL=16 CL=24, tRRD=12 tCCD=4, tRCD=24 tRAS=55 tRP=24 tRC=78
n_cmd=1005265 n_nop=798586 n_act=70058 n_pre=70042 n_ref_event=0 n_req=104465 n_rd=104304 n_rd_L2_A=0 n_write=0 n_wr_bk=615 bw_util=0.4175
n_activity=910334 dram_eff=0.461
bk0: 7009a 298810i bk1: 7058a 293478i bk2: 6331a 322730i bk3: 6649a 302130i bk4: 6322a 305493i bk5: 6624a 312558i bk6: 6016a 341069i bk7: 6320a 319046i bk8: 5901a 350491i bk9: 6271a 325980i bk10: 5923a 348328i bk11: 6052a 336528i bk12: 6555a 297444i bk13: 6946a 288263i bk14: 7142a 293956i bk15: 7185a 279197i 

------------------------------------------------------------------------

Row_Buffer_Locality = 0.329460
Row_Buffer_Locality_read = 0.329316
Row_Buffer_Locality_write = 0.422360
Bank_Level_Parallism = 12.415231
Bank_Level_Parallism_Col = 2.524630
Bank_Level_Parallism_Ready = 1.120209
write_to_read_ratio_blp_rw_average = 0.073252
GrpLevelPara = 2.144857 

BW Util details:
bwutil = 0.417478 
total_CMD = 1005265 
util_bw = 419676 
Wasted_Col = 463218 
Wasted_Row = 17660 
Idle = 104711 

BW Util Bottlenecks: 
RCDc_limit = 890877 
RCDWRc_limit = 626 
WTRc_limit = 11544 
RTWc_limit = 123815 
CCDLc_limit = 124241 
rwq = 0 
CCDLc_limit_alone = 115316 
WTRc_limit_alone = 10949 
RTWc_limit_alone = 115485 

Commands details: 
total_CMD = 1005265 
n_nop = 798586 
Read = 104304 
Write = 0 
L2_Alloc = 0 
L2_WB = 615 
n_act = 70058 
n_pre = 70042 
n_ref = 0 
n_req = 104465 
total_req = 104919 

Dual Bus Interface Util: 
issued_total_row = 140100 
issued_total_col = 104919 
Row_Bus_Util =  0.139366 
CoL_Bus_Util = 0.104369 
Either_Row_CoL_Bus_Util = 0.205597 
Issued_on_Two_Bus_Simul_Util = 0.038139 
issued_two_Eff = 0.185505 
queue_avg = 44.941223 


dram_util_bins: 0 0 0 0 0 0 0 0 0 0
dram_eff_bins: 0 0 0 0 0 0 0 0 0 0
mrqq: max=64 avg=44.9412
Memory Partition 3: 
Cache L2_bank_006:
MSHR contents

Cache L2_bank_007:
MSHR contents

In Dram Latency Queue (total = 0): 
DRAM[3]: 16 bks, busW=2 BL=16 CL=24, tRRD=12 tCCD=4, tRCD=24 tRAS=55 tRP=24 tRC=78
n_cmd=1005265 n_nop=799498 n_act=69974 n_pre=69958 n_ref_event=0 n_req=103263 n_rd=103100 n_rd_L2_A=0 n_write=0 n_wr_bk=619 bw_util=0.4127
n_activity=911095 dram_eff=0.4554
bk0: 6649a 323383i bk1: 7018a 297659i bk2: 6295a 330769i bk3: 6464a 328074i bk4: 6440a 317372i bk5: 6407a 315983i bk6: 6118a 351361i bk7: 6132a 338680i bk8: 5967a 356075i bk9: 6115a 329755i bk10: 5869a 359217i bk11: 6001a 359242i bk12: 6670a 307661i bk13: 6675a 309440i bk14: 7122a 292137i bk15: 7158a 297402i 

------------------------------------------------------------------------

Row_Buffer_Locality = 0.322468
Row_Buffer_Locality_read = 0.322376
Row_Buffer_Locality_write = 0.380368
Bank_Level_Parallism = 12.177014
Bank_Level_Parallism_Col = 2.413556
Bank_Level_Parallism_Ready = 1.103579
write_to_read_ratio_blp_rw_average = 0.047169
GrpLevelPara = 2.075724 

BW Util details:
bwutil = 0.412703 
total_CMD = 1005265 
util_bw = 414876 
Wasted_Col = 468446 
Wasted_Row = 18411 
Idle = 103532 

BW Util Bottlenecks: 
RCDc_limit = 899911 
RCDWRc_limit = 681 
WTRc_limit = 11781 
RTWc_limit = 81264 
CCDLc_limit = 121556 
rwq = 0 
CCDLc_limit_alone = 115431 
WTRc_limit_alone = 11136 
RTWc_limit_alone = 75784 

Commands details: 
total_CMD = 1005265 
n_nop = 799498 
Read = 103100 
Write = 0 
L2_Alloc = 0 
L2_WB = 619 
n_act = 69974 
n_pre = 69958 
n_ref = 0 
n_req = 103263 
total_req = 103719 

Dual Bus Interface Util: 
issued_total_row = 139932 
issued_total_col = 103719 
Row_Bus_Util =  0.139199 
CoL_Bus_Util = 0.103176 
Either_Row_CoL_Bus_Util = 0.204689 
Issued_on_Two_Bus_Simul_Util = 0.037686 
issued_two_Eff = 0.184111 
queue_avg = 41.165306 


dram_util_bins: 0 0 0 0 0 0 0 0 0 0
dram_eff_bins: 0 0 0 0 0 0 0 0 0 0
mrqq: max=64 avg=41.1653
Memory Partition 4: 
Cache L2_bank_008:
MSHR contents

Cache L2_bank_009:
MSHR contents

In Dram Latency Queue (total = 0): 
DRAM[4]: 16 bks, busW=2 BL=16 CL=24, tRRD=12 tCCD=4, tRCD=24 tRAS=55 tRP=24 tRC=78
n_cmd=1005265 n_nop=797201 n_act=70319 n_pre=70303 n_ref_event=0 n_req=104135 n_rd=103969 n_rd_L2_A=0 n_write=0 n_wr_bk=630 bw_util=0.4162
n_activity=911105 dram_eff=0.4592
bk0: 7008a 287089i bk1: 7067a 291977i bk2: 6407a 316073i bk3: 6384a 314409i bk4: 6373a 311551i bk5: 6445a 300774i bk6: 6037a 330085i bk7: 6121a 332733i bk8: 6165a 316753i bk9: 6050a 326153i bk10: 6050a 330628i bk11: 6007a 342173i bk12: 6618a 300828i bk13: 6728a 283384i bk14: 7275a 281361i bk15: 7234a 273789i 

------------------------------------------------------------------------

Row_Buffer_Locality = 0.324828
Row_Buffer_Locality_read = 0.324837
Row_Buffer_Locality_write = 0.319277
Bank_Level_Parallism = 12.481464
Bank_Level_Parallism_Col = 2.473886
Bank_Level_Parallism_Ready = 1.106370
write_to_read_ratio_blp_rw_average = 0.062335
GrpLevelPara = 2.118940 

BW Util details:
bwutil = 0.416205 
total_CMD = 1005265 
util_bw = 418396 
Wasted_Col = 466971 
Wasted_Row = 16394 
Idle = 103504 

BW Util Bottlenecks: 
RCDc_limit = 899420 
RCDWRc_limit = 711 
WTRc_limit = 11143 
RTWc_limit = 105112 
CCDLc_limit = 122946 
rwq = 0 
CCDLc_limit_alone = 115065 
WTRc_limit_alone = 10549 
RTWc_limit_alone = 97825 

Commands details: 
total_CMD = 1005265 
n_nop = 797201 
Read = 103969 
Write = 0 
L2_Alloc = 0 
L2_WB = 630 
n_act = 70319 
n_pre = 70303 
n_ref = 0 
n_req = 104135 
total_req = 104599 

Dual Bus Interface Util: 
issued_total_row = 140622 
issued_total_col = 104599 
Row_Bus_Util =  0.139886 
CoL_Bus_Util = 0.104051 
Either_Row_CoL_Bus_Util = 0.206974 
Issued_on_Two_Bus_Simul_Util = 0.036962 
issued_two_Eff = 0.178584 
queue_avg = 43.597691 


dram_util_bins: 0 0 0 0 0 0 0 0 0 0
dram_eff_bins: 0 0 0 0 0 0 0 0 0 0
mrqq: max=64 avg=43.5977
Memory Partition 5: 
Cache L2_bank_010:
MSHR contents

Cache L2_bank_011:
MSHR contents

In Dram Latency Queue (total = 0): 
DRAM[5]: 16 bks, busW=2 BL=16 CL=24, tRRD=12 tCCD=4, tRCD=24 tRAS=55 tRP=24 tRC=78
n_cmd=1005265 n_nop=799281 n_act=69860 n_pre=69844 n_ref_event=0 n_req=103374 n_rd=103213 n_rd_L2_A=0 n_write=0 n_wr_bk=616 bw_util=0.4131
n_activity=910630 dram_eff=0.4561
bk0: 6913a 300835i bk1: 6950a 304063i bk2: 6402a 329122i bk3: 6472a 297292i bk4: 6461a 298993i bk5: 6463a 296902i bk6: 6163a 334664i bk7: 6033a 342150i bk8: 5981a 335366i bk9: 6097a 325611i bk10: 5877a 356094i bk11: 5879a 343420i bk12: 6610a 301532i bk13: 6617a 303276i bk14: 7147a 292852i bk15: 7148a 295869i 

------------------------------------------------------------------------

Row_Buffer_Locality = 0.324298
Row_Buffer_Locality_read = 0.324339
Row_Buffer_Locality_write = 0.298137
Bank_Level_Parallism = 12.348225
Bank_Level_Parallism_Col = 2.382296
Bank_Level_Parallism_Ready = 1.109034
write_to_read_ratio_blp_rw_average = 0.036608
GrpLevelPara = 2.060326 

BW Util details:
bwutil = 0.413141 
total_CMD = 1005265 
util_bw = 415316 
Wasted_Col = 467771 
Wasted_Row = 18700 
Idle = 103478 

BW Util Bottlenecks: 
RCDc_limit = 896476 
RCDWRc_limit = 719 
WTRc_limit = 11453 
RTWc_limit = 63538 
CCDLc_limit = 119059 
rwq = 0 
CCDLc_limit_alone = 114004 
WTRc_limit_alone = 10828 
RTWc_limit_alone = 59108 

Commands details: 
total_CMD = 1005265 
n_nop = 799281 
Read = 103213 
Write = 0 
L2_Alloc = 0 
L2_WB = 616 
n_act = 69860 
n_pre = 69844 
n_ref = 0 
n_req = 103374 
total_req = 103829 

Dual Bus Interface Util: 
issued_total_row = 139704 
issued_total_col = 103829 
Row_Bus_Util =  0.138972 
CoL_Bus_Util = 0.103285 
Either_Row_CoL_Bus_Util = 0.204905 
Issued_on_Two_Bus_Simul_Util = 0.037352 
issued_two_Eff = 0.182291 
queue_avg = 41.252350 


dram_util_bins: 0 0 0 0 0 0 0 0 0 0
dram_eff_bins: 0 0 0 0 0 0 0 0 0 0
mrqq: max=64 avg=41.2523
Memory Partition 6: 
Cache L2_bank_012:
MSHR contents

Cache L2_bank_013:
MSHR contents

In Dram Latency Queue (total = 0): 
DRAM[6]: 16 bks, busW=2 BL=16 CL=24, tRRD=12 tCCD=4, tRCD=24 tRAS=55 tRP=24 tRC=78
n_cmd=1005265 n_nop=803181 n_act=68975 n_pre=68959 n_ref_event=0 n_req=101043 n_rd=100891 n_rd_L2_A=0 n_write=0 n_wr_bk=586 bw_util=0.4038
n_activity=902819 dram_eff=0.4496
bk0: 7154a 310630i bk1: 6432a 317437i bk2: 6533a 318614i bk3: 6039a 340971i bk4: 6598a 303787i bk5: 6185a 320841i bk6: 6214a 341463i bk7: 5775a 362400i bk8: 6005a 347436i bk9: 5781a 359087i bk10: 5845a 364172i bk11: 5671a 381506i bk12: 6653a 309090i bk13: 6215a 331551i bk14: 7243a 295538i bk15: 6548a 324777i 

------------------------------------------------------------------------

Row_Buffer_Locality = 0.317469
Row_Buffer_Locality_read = 0.317511
Row_Buffer_Locality_write = 0.289474
Bank_Level_Parallism = 12.172071
Bank_Level_Parallism_Col = 2.443438
Bank_Level_Parallism_Ready = 1.107982
write_to_read_ratio_blp_rw_average = 0.060097
GrpLevelPara = 2.093689 

BW Util details:
bwutil = 0.403782 
total_CMD = 1005265 
util_bw = 405908 
Wasted_Col = 465966 
Wasted_Row = 20617 
Idle = 112774 

BW Util Bottlenecks: 
RCDc_limit = 893323 
RCDWRc_limit = 732 
WTRc_limit = 11607 
RTWc_limit = 98665 
CCDLc_limit = 118763 
rwq = 0 
CCDLc_limit_alone = 111825 
[...]

------------------------------------------------------------------------

Row_Buffer_Locality = 0.321420
Row_Buffer_Locality_read = 0.321305
Row_Buffer_Locality_write = 0.402778
Bank_Level_Parallism = 12.570552
Bank_Level_Parallism_Col = 2.388744
Bank_Level_Parallism_Ready = 1.115564
write_to_read_ratio_blp_rw_average = 0.038133
GrpLevelPara = 2.067144 

BW Util details:
bwutil = 0.404789 
total_CMD = 3049767 
util_bw = 1234512 
Wasted_Col = 1391816 
Wasted_Row = 50862 
Idle = 372577 

BW Util Bottlenecks: 
RCDc_limit = 2684717 
RCDWRc_limit = 1646 
WTRc_limit = 30088 
RTWc_limit = 186336 
CCDLc_limit = 354530 
rwq = 0 
CCDLc_limit_alone = 340477 
WTRc_limit_alone = 28285 
RTWc_limit_alone = 174086 

Commands details: 
total_CMD = 3049767 
n_nop = 2439240 
Read = 306926 
Write = 0 
L2_Alloc = 0 
L2_WB = 1702 
n_act = 208577 
n_pre = 208561 
n_ref = 0 
n_req = 307358 
total_req = 308628 

Dual Bus Interface Util: 
issued_total_row = 417138 
issued_total_col = 308628 
Row_Bus_Util =  0.136777 
CoL_Bus_Util = 0.101197 
Either_Row_CoL_Bus_Util = 0.200188 
Issued_on_Two_Bus_Simul_Util = 0.037786 
issued_two_Eff = 0.188753 
queue_avg = 41.839428 


dram_util_bins: 0 0 0 0 0 0 0 0 0 0
dram_eff_bins: 0 0 0 0 0 0 0 0 0 0
mrqq: max=64 avg=41.8394
Memory Partition 7: 
Cache L2_bank_014:
MSHR contents

Cache L2_bank_015:
MSHR contents

In Dram Latency Queue (total = 0): 
DRAM[7]: 16 bks, busW=2 BL=16 CL=24, tRRD=12 tCCD=4, tRCD=24 tRAS=55 tRP=24 tRC=78
n_cmd=3049767 n_nop=2424804 n_act=212855 n_pre=212839 n_ref_event=0 n_req=318314 n_rd=317854 n_rd_L2_A=0 n_write=0 n_wr_bk=1775 bw_util=0.4192
n_activity=2729202 dram_eff=0.4685
bk0: 21602a 849442i bk1: 20572a 872344i bk2: 19930a 882207i bk3: 19499a 920655i bk4: 20240a 866569i bk5: 19256a 907601i bk6: 19280a 900634i bk7: 18397a 951283i bk8: 18881a 950450i bk9: 18195a 974017i bk10: 18552a 979857i bk11: 17574a 1023499i bk12: 21348a 809494i bk13: 20597a 847459i bk14: 22326a 808655i bk15: 21605a 794590i 

------------------------------------------------------------------------

Row_Buffer_Locality = 0.331336
Row_Buffer_Locality_read = 0.331190
Row_Buffer_Locality_write = 0.432609
Bank_Level_Parallism = 12.867375
Bank_Level_Parallism_Col = 2.440932
Bank_Level_Parallism_Ready = 1.129807
write_to_read_ratio_blp_rw_average = 0.042841
GrpLevelPara = 2.091253 

BW Util details:
bwutil = 0.419218 
total_CMD = 3049767 
util_bw = 1278516 
Wasted_Col = 1386709 
Wasted_Row = 39251 
Idle = 345291 

BW Util Bottlenecks: 
RCDc_limit = 2690232 
RCDWRc_limit = 1603 
WTRc_limit = 28591 
RTWc_limit = 215571 
CCDLc_limit = 372755 
rwq = 0 
CCDLc_limit_alone = 356357 
WTRc_limit_alone = 26735 
RTWc_limit_alone = 201029 

Commands details: 
total_CMD = 3049767 
n_nop = 2424804 
Read = 317854 
Write = 0 
L2_Alloc = 0 
L2_WB = 1775 
n_act = 212855 
n_pre = 212839 
n_ref = 0 
n_req = 318314 
total_req = 319629 

Dual Bus Interface Util: 
issued_total_row = 425694 
issued_total_col = 319629 
Row_Bus_Util =  0.139582 
CoL_Bus_Util = 0.104804 
Either_Row_CoL_Bus_Util = 0.204922 
Issued_on_Two_Bus_Simul_Util = 0.039465 
issued_two_Eff = 0.192587 
queue_avg = 45.205212 


dram_util_bins: 0 0 0 0 0 0 0 0 0 0
dram_eff_bins: 0 0 0 0 0 0 0 0 0 0
mrqq: max=64 avg=45.2052
Memory Partition 8: 
Cache L2_bank_016:
MSHR contents

Cache L2_bank_017:
MSHR contents

In Dram Latency Queue (total = 0): 
DRAM[8]: 16 bks, busW=2 BL=16 CL=24, tRRD=12 tCCD=4, tRCD=24 tRAS=55 tRP=24 tRC=78
n_cmd=3049767 n_nop=2434716 n_act=209365 n_pre=209349 n_ref_event=0 n_req=311378 n_rd=310908 n_rd_L2_A=0 n_write=0 n_wr_bk=1790 bw_util=0.4101
n_activity=2710991 dram_eff=0.4614
bk0: 20775a 908361i bk1: 20646a 930921i bk2: 19374a 927482i bk3: 19420a 932368i bk4: 19135a 953494i bk5: 19161a 950641i bk6: 18636a 983129i bk7: 18377a 988807i bk8: 18160a 1013752i bk9: 18529a 985093i bk10: 17861a 1034502i bk11: 17702a 1035546i bk12: 20632a 893193i bk13: 20190a 900466i bk14: 21460a 869002i bk15: 20850a 892428i 

------------------------------------------------------------------------

Row_Buffer_Locality = 0.327650
Row_Buffer_Locality_read = 0.327480
Row_Buffer_Locality_write = 0.440426
Bank_Level_Parallism = 12.641804
Bank_Level_Parallism_Col = 2.411615
Bank_Level_Parallism_Ready = 1.126895
write_to_read_ratio_blp_rw_average = 0.038522
GrpLevelPara = 2.075776 

BW Util details:
bwutil = 0.410127 
total_CMD = 3049767 
util_bw = 1250792 
Wasted_Col = 1384318 
Wasted_Row = 49099 
Idle = 365558 

BW Util Bottlenecks: 
RCDc_limit = 2670666 
RCDWRc_limit = 1592 
WTRc_limit = 29755 
RTWc_limit = 191062 
CCDLc_limit = 360874 
rwq = 0 
CCDLc_limit_alone = 345936 
WTRc_limit_alone = 27980 
RTWc_limit_alone = 177899 

Commands details: 
total_CMD = 3049767 
n_nop = 2434716 
Read = 310908 
Write = 0 
L2_Alloc = 0 
L2_WB = 1790 
n_act = 209365 
n_pre = 209349 
n_ref = 0 
n_req = 311378 
total_req = 312698 

Dual Bus Interface Util: 
issued_total_row = 418714 
issued_total_col = 312698 
Row_Bus_Util =  0.137294 
CoL_Bus_Util = 0.102532 
Either_Row_CoL_Bus_Util = 0.201671 
Issued_on_Two_Bus_Simul_Util = 0.038154 
issued_two_Eff = 0.189189 
queue_avg = 42.815487 


dram_util_bins: 0 0 0 0 0 0 0 0 0 0
dram_eff_bins: 0 0 0 0 0 0 0 0 0 0
mrqq: max=64 avg=42.8155
Memory Partition 9: 
Cache L2_bank_018:
MSHR contents

Cache L2_bank_019:
MSHR contents

In Dram Latency Queue (total = 0): 
DRAM[9]: 16 bks, busW=2 BL=16 CL=24, tRRD=12 tCCD=4, tRCD=24 tRAS=55 tRP=24 tRC=78
n_cmd=3049767 n_nop=2434596 n_act=209116 n_pre=209100 n_ref_event=0 n_req=311135 n_rd=310676 n_rd_L2_A=0 n_write=0 n_wr_bk=1792 bw_util=0.4098
n_activity=2710307 dram_eff=0.4612
bk0: 20640a 930077i bk1: 20545a 946967i bk2: 19637a 951203i bk3: 19117a 960833i bk4: 19222a 936561i bk5: 18791a 948907i bk6: 18955a 977912i bk7: 17942a 1036052i bk8: 18362a 1021470i bk9: 18116a 1024938i bk10: 18215a 1021200i bk11: 17528a 1049210i bk12: 20951a 902965i bk13: 20061a 910573i bk14: 21666a 884082i bk15: 20928a 893502i 

------------------------------------------------------------------------

Row_Buffer_Locality = 0.327925
Row_Buffer_Locality_read = 0.327714
Row_Buffer_Locality_write = 0.470588
Bank_Level_Parallism = 12.569551
Bank_Level_Parallism_Col = 2.403982
Bank_Level_Parallism_Ready = 1.126028
write_to_read_ratio_blp_rw_average = 0.037662
GrpLevelPara = 2.072043 

BW Util details:
bwutil = 0.409825 
total_CMD = 3049767 
util_bw = 1249872 
Wasted_Col = 1383375 
Wasted_Row = 50610 
Idle = 365910 

BW Util Bottlenecks: 
RCDc_limit = 2667024 
RCDWRc_limit = 1499 
WTRc_limit = 28937 
RTWc_limit = 181365 
CCDLc_limit = 359851 
rwq = 0 
CCDLc_limit_alone = 345845 
WTRc_limit_alone = 27103 
RTWc_limit_alone = 169193 

Commands details: 
total_CMD = 3049767 
n_nop = 2434596 
Read = 310676 
Write = 0 
L2_Alloc = 0 
L2_WB = 1792 
n_act = 209116 
n_pre = 209100 
n_ref = 0 
n_req = 311135 
total_req = 312468 

Dual Bus Interface Util: 
issued_total_row = 418216 
issued_total_col = 312468 
Row_Bus_Util =  0.137130 
CoL_Bus_Util = 0.102456 
Either_Row_CoL_Bus_Util = 0.201711 
Issued_on_Two_Bus_Simul_Util = 0.037876 
issued_two_Eff = 0.187774 
queue_avg = 42.541420 


dram_util_bins: 0 0 0 0 0 0 0 0 0 0
dram_eff_bins: 0 0 0 0 0 0 0 0 0 0
mrqq: max=64 avg=42.5414
Memory Partition 10: 
Cache L2_bank_020:
MSHR contents

Cache L2_bank_021:
MSHR contents

In Dram Latency Queue (total = 0): 
DRAM[10]: 16 bks, busW=2 BL=16 CL=24, tRRD=12 tCCD=4, tRCD=24 tRAS=55 tRP=24 tRC=78
n_cmd=3049767 n_nop=2427743 n_act=211618 n_pre=211602 n_ref_event=0 n_req=316183 n_rd=315733 n_rd_L2_A=0 n_write=0 n_wr_bk=1730 bw_util=0.4164
n_activity=2721603 dram_eff=0.4666
bk0: 20273a 896940i bk1: 20638a 887518i bk2: 19565a 902983i bk3: 20119a 873269i bk4: 19190a 910141i bk5: 19745a 879058i bk6: 18889a 947442i bk7: 18890a 929877i bk8: 18471a 974240i bk9: 19036a 935647i bk10: 17761a 1000267i bk11: 18490a 944929i bk12: 20493a 862224i bk13: 20844a 851065i bk14: 21381a 852534i bk15: 21948a 835867i 

------------------------------------------------------------------------

Row_Buffer_Locality = 0.330742
Row_Buffer_Locality_read = 0.330684
Row_Buffer_Locality_write = 0.371111
Bank_Level_Parallism = 12.854406
Bank_Level_Parallism_Col = 2.423377
Bank_Level_Parallism_Ready = 1.120765
write_to_read_ratio_blp_rw_average = 0.041952
GrpLevelPara = 2.086805 

BW Util details:
bwutil = 0.416377 
total_CMD = 3049767 
util_bw = 1269852 
Wasted_Col = 1383768 
Wasted_Row = 42334 
Idle = 353813 

BW Util Bottlenecks: 
RCDc_limit = 2680205 
RCDWRc_limit = 1721 
WTRc_limit = 29641 
RTWc_limit = 202847 
CCDLc_limit = 371234 
rwq = 0 
CCDLc_limit_alone = 355816 
WTRc_limit_alone = 28081 
RTWc_limit_alone = 188989 

Commands details: 
total_CMD = 3049767 
n_nop = 2427743 
Read = 315733 
Write = 0 
L2_Alloc = 0 
L2_WB = 1730 
n_act = 211618 
n_pre = 211602 
n_ref = 0 
n_req = 316183 
total_req = 317463 

Dual Bus Interface Util: 
issued_total_row = 423220 
issued_total_col = 317463 
Row_Bus_Util =  0.138771 
CoL_Bus_Util = 0.104094 
Either_Row_CoL_Bus_Util = 0.203958 
Issued_on_Two_Bus_Simul_Util = 0.038908 
issued_two_Eff = 0.190763 
queue_avg = 44.884537 


dram_util_bins: 0 0 0 0 0 0 0 0 0 0
dram_eff_bins: 0 0 0 0 0 0 0 0 0 0
mrqq: max=64 avg=44.8845
Memory Partition 11: 
Cache L2_bank_022:
MSHR contents

Cache L2_bank_023:
MSHR contents

In Dram Latency Queue (total = 0): 
DRAM[11]: 16 bks, busW=2 BL=16 CL=24, tRRD=12 tCCD=4, tRCD=24 tRAS=55 tRP=24 tRC=78
n_cmd=3049767 n_nop=2435954 n_act=208832 n_pre=208816 n_ref_event=0 n_req=310649 n_rd=310188 n_rd_L2_A=0 n_write=0 n_wr_bk=1790 bw_util=0.4092
n_activity=2711793 dram_eff=0.4602
bk0: 20165a 957769i bk1: 20552a 952870i bk2: 18826a 971446i bk3: 19799a 930045i bk4: 18657a 1005450i bk5: 19104a 990730i bk6: 18304a 1021489i bk7: 18727a 994268i bk8: 18047a 1033168i bk9: 18707a 1013854i bk10: 17685a 1068195i bk11: 18100a 1032887i bk12: 20420a 904281i bk13: 20484a 893903i bk14: 21159a 893634i bk15: 21452a 877095i 

------------------------------------------------------------------------

Row_Buffer_Locality = 0.327788
Row_Buffer_Locality_read = 0.327659
Row_Buffer_Locality_write = 0.414317
Bank_Level_Parallism = 12.522111
Bank_Level_Parallism_Col = 2.396076
Bank_Level_Parallism_Ready = 1.118932
write_to_read_ratio_blp_rw_average = 0.035805
GrpLevelPara = 2.068276 

BW Util details:
bwutil = 0.409183 
total_CMD = 3049767 
util_bw = 1247912 
Wasted_Col = 1382315 
Wasted_Row = 52196 
Idle = 367344 

BW Util Bottlenecks: 
RCDc_limit = 2664157 
RCDWRc_limit = 1625 
WTRc_limit = 27639 
RTWc_limit = 180757 
CCDLc_limit = 359485 
rwq = 0 
CCDLc_limit_alone = 345754 
WTRc_limit_alone = 26175 
RTWc_limit_alone = 168490 

Commands details: 
total_CMD = 3049767 
n_nop = 2435954 
Read = 310188 
Write = 0 
L2_Alloc = 0 
L2_WB = 1790 
n_act = 208832 
n_pre = 208816 
n_ref = 0 
n_req = 310649 
total_req = 311978 

Dual Bus Interface Util: 
issued_total_row = 417648 
issued_total_col = 311978 
Row_Bus_Util =  0.136944 
CoL_Bus_Util = 0.102296 
Either_Row_CoL_Bus_Util = 0.201266 
Issued_on_Two_Bus_Simul_Util = 0.037974 
issued_two_Eff = 0.188678 
queue_avg = 41.730499 


dram_util_bins: 0 0 0 0 0 0 0 0 0 0
dram_eff_bins: 0 0 0 0 0 0 0 0 0 0
mrqq: max=64 avg=41.7305

========= L2 cache stats =========
L2_cache_bank[0]: Access = 322600, Miss = 157240, Miss_rate = 0.487, Pending_hits = 582, Reservation_fails = 196
L2_cache_bank[1]: Access = 323483, Miss = 153896, Miss_rate = 0.476, Pending_hits = 388, Reservation_fails = 0
L2_cache_bank[2]: Access = 329553, Miss = 159902, Miss_rate = 0.485, Pending_hits = 490, Reservation_fails = 129
L2_cache_bank[3]: Access = 323548, Miss = 154785, Miss_rate = 0.478, Pending_hits = 396, Reservation_fails = 538
L2_cache_bank[4]: Access = 322006, Miss = 152322, Miss_rate = 0.473, Pending_hits = 450, Reservation_fails = 2
L2_cache_bank[5]: Access = 333290, Miss = 165112, Miss_rate = 0.495, Pending_hits = 1160, Reservation_fails = 29826
L2_cache_bank[6]: Access = 331939, Miss = 151481, Miss_rate = 0.456, Pending_hits = 374, Reservation_fails = 872
L2_cache_bank[7]: Access = 322619, Miss = 156444, Miss_rate = 0.485, Pending_hits = 218, Reservation_fails = 234
L2_cache_bank[8]: Access = 322592, Miss = 157507, Miss_rate = 0.488, Pending_hits = 501, Reservation_fails = 6790
L2_cache_bank[9]: Access = 324827, Miss = 154980, Miss_rate = 0.477, Pending_hits = 312, Reservation_fails = 3045
L2_cache_bank[10]: Access = 325544, Miss = 157488, Miss_rate = 0.484, Pending_hits = 410, Reservation_fails = 7
L2_cache_bank[11]: Access = 320971, Miss = 154157, Miss_rate = 0.480, Pending_hits = 280, Reservation_fails = 204
L2_cache_bank[12]: Access = 322962, Miss = 155364, Miss_rate = 0.481, Pending_hits = 362, Reservation_fails = 250
L2_cache_bank[13]: Access = 328718, Miss = 151603, Miss_rate = 0.461, Pending_hits = 531, Reservation_fails = 283
L2_cache_bank[14]: Access = 334066, Miss = 162190, Miss_rate = 0.486, Pending_hits = 803, Reservation_fails = 6218
L2_cache_bank[15]: Access = 323661, Miss = 155735, Miss_rate = 0.481, Pending_hits = 408, Reservation_fails = 8637
L2_cache_bank[16]: Access = 322293, Miss = 156065, Miss_rate = 0.484, Pending_hits = 462, Reservation_fails = 11194
L2_cache_bank[17]: Access = 324250, Miss = 154916, Miss_rate = 0.478, Pending_hits = 278, Reservation_fails = 0
L2_cache_bank[18]: Access = 326156, Miss = 157670, Miss_rate = 0.483, Pending_hits = 481, Reservation_fails = 15560
L2_cache_bank[19]: Access = 323119, Miss = 153082, Miss_rate = 0.474, Pending_hits = 325, Reservation_fails = 2678
L2_cache_bank[20]: Access = 324329, Miss = 156056, Miss_rate = 0.481, Pending_hits = 379, Reservation_fails = 2027
L2_cache_bank[21]: Access = 332454, Miss = 159732, Miss_rate = 0.480, Pending_hits = 940, Reservation_fails = 4879
L2_cache_bank[22]: Access = 331139, Miss = 153296, Miss_rate = 0.463, Pending_hits = 395, Reservation_fails = 6
L2_cache_bank[23]: Access = 323845, Miss = 156944, Miss_rate = 0.485, Pending_hits = 263, Reservation_fails = 377
L2_total_cache_accesses = 7819964
L2_total_cache_misses = 3747967
L2_total_cache_miss_rate = 0.4793
L2_total_cache_pending_hits = 11188
L2_total_cache_reservation_fails = 93952
L2_total_cache_breakdown:
	L2_cache_stats_breakdown[GLOBAL_ACC_R][HIT] = 4002163
	L2_cache_stats_breakdown[GLOBAL_ACC_R][HIT_RESERVED] = 11068
	L2_cache_stats_breakdown[GLOBAL_ACC_R][MISS] = 3107011
	L2_cache_stats_breakdown[GLOBAL_ACC_R][RESERVATION_FAIL] = 93952
	L2_cache_stats_breakdown[GLOBAL_ACC_R][SECTOR_MISS] = 640331
	L2_cache_stats_breakdown[GLOBAL_ACC_R][MSHR_HIT] = 11068
	L2_cache_stats_breakdown[LOCAL_ACC_R][HIT] = 0
	L2_cache_stats_breakdown[LOCAL_ACC_R][HIT_RESERVED] = 0
	L2_cache_stats_breakdown[LOCAL_ACC_R][MISS] = 0
	L2_cache_stats_breakdown[LOCAL_ACC_R][RESERVATION_FAIL] = 0
	L2_cache_stats_breakdown[LOCAL_ACC_R][SECTOR_MISS] = 0
	L2_cache_stats_breakdown[LOCAL_ACC_R][MSHR_HIT] = 0
	L2_cache_stats_breakdown[CONST_ACC_R][HIT] = 0
	L2_cache_stats_breakdown[CONST_ACC_R][HIT_RESERVED] = 0
	L2_cache_stats_breakdown[CONST_ACC_R][MISS] = 0
	L2_cache_stats_breakdown[CONST_ACC_R][RESERVATION_FAIL] = 0
	L2_cache_stats_breakdown[CONST_ACC_R][SECTOR_MISS] = 0
	L2_cache_stats_breakdown[CONST_ACC_R][MSHR_HIT] = 0
	L2_cache_stats_breakdown[TEXTURE_ACC_R][HIT] = 0
	L2_cache_stats_breakdown[TEXTURE_ACC_R][HIT_RESERVED] = 0
	L2_cache_stats_breakdown[TEXTURE_ACC_R][MISS] = 0
	L2_cache_stats_breakdown[TEXTURE_ACC_R][RESERVATION_FAIL] = 0
	L2_cache_stats_breakdown[TEXTURE_ACC_R][SECTOR_MISS] = 0
	L2_cache_stats_breakdown[TEXTURE_ACC_R][MSHR_HIT] = 0
	L2_cache_stats_breakdown[GLOBAL_ACC_W][HIT] = 58646
	L2_cache_stats_breakdown[GLOBAL_ACC_W][HIT_RESERVED] = 120
	L2_cache_stats_breakdown[GLOBAL_ACC_W][MISS] = 206
	L2_cache_stats_breakdown[GLOBAL_ACC_W][RESERVATION_FAIL] = 0
	L2_cache_stats_breakdown[GLOBAL_ACC_W][SECTOR_MISS] = 419
	L2_cache_stats_breakdown[GLOBAL_ACC_W][MSHR_HIT] = 0
	L2_cache_stats_breakdown[LOCAL_ACC_W][HIT] = 0
	L2_cache_stats_breakdown[LOCAL_ACC_W][HIT_RESERVED] = 0
	L2_cache_stats_breakdown[LOCAL_ACC_W][MISS] = 0
	L2_cache_stats_breakdown[LOCAL_ACC_W][RESERVATION_FAIL] = 0
	L2_cache_stats_breakdown[LOCAL_ACC_W][SECTOR_MISS] = 0
	L2_cache_stats_breakdown[LOCAL_ACC_W][MSHR_HIT] = 0
	L2_cache_stats_breakdown[L1_WRBK_ACC][HIT] = 0
	L2_cache_stats_breakdown[L1_WRBK_ACC][HIT_RESERVED] = 0
	L2_cache_stats_breakdown[L1_WRBK_ACC][MISS] = 0
	L2_cache_stats_breakdown[L1_WRBK_ACC][RESERVATION_FAIL] = 0
	L2_cache_stats_breakdown[L1_WRBK_ACC][SECTOR_MISS] = 0
	L2_cache_stats_breakdown[L1_WRBK_ACC][MSHR_HIT] = 0
	L2_cache_stats_breakdown[L2_WRBK_ACC][HIT] = 0
	L2_cache_stats_breakdown[L2_WRBK_ACC][HIT_RESERVED] = 0
	L2_cache_stats_breakdown[L2_WRBK_ACC][MISS] = 0
	L2_cache_stats_breakdown[L2_WRBK_ACC][RESERVATION_FAIL] = 0
	L2_cache_stats_breakdown[L2_WRBK_ACC][SECTOR_MISS] = 0
	L2_cache_stats_breakdown[L2_WRBK_ACC][MSHR_HIT] = 0
	L2_cache_stats_breakdown[INST_ACC_R][HIT] = 0
	L2_cache_stats_breakdown[INST_ACC_R][HIT_RESERVED] = 0
	L2_cache_stats_breakdown[INST_ACC_R][MISS] = 0
	L2_cache_stats_breakdown[INST_ACC_R][RESERVATION_FAIL] = 0
	L2_cache_stats_breakdown[INST_ACC_R][SECTOR_MISS] = 0
	L2_cache_stats_breakdown[INST_ACC_R][MSHR_HIT] = 0
	L2_cache_stats_breakdown[L1_WR_ALLOC_R][HIT] = 0
	L2_cache_stats_breakdown[L1_WR_ALLOC_R][HIT_RESERVED] = 0
	L2_cache_stats_breakdown[L1_WR_ALLOC_R][MISS] = 0
	L2_cache_stats_breakdown[L1_WR_ALLOC_R][RESERVATION_FAIL] = 0
	L2_cache_stats_breakdown[L1_WR_ALLOC_R][SECTOR_MISS] = 0
	L2_cache_stats_breakdown[L1_WR_ALLOC_R][MSHR_HIT] = 0
	L2_cache_stats_breakdown[L2_WR_ALLOC_R][HIT] = 0
	L2_cache_stats_breakdown[L2_WR_ALLOC_R][HIT_RESERVED] = 0
	L2_cache_stats_breakdown[L2_WR_ALLOC_R][MISS] = 0
	L2_cache_stats_breakdown[L2_WR_ALLOC_R][RESERVATION_FAIL] = 0
	L2_cache_stats_breakdown[L2_WR_ALLOC_R][SECTOR_MISS] = 0
	L2_cache_stats_breakdown[L2_WR_ALLOC_R][MSHR_HIT] = 0
	L2_cache_stats_breakdown[GLOBAL_ACC_R][TOTAL_ACCESS] = 7760573
	L2_cache_stats_breakdown[GLOBAL_ACC_W][TOTAL_ACCESS] = 59391
L2_total_cache_reservation_fail_breakdown:
	L2_cache_stats_fail_breakdown[GLOBAL_ACC_R][MSHR_ENRTY_FAIL] = 93952
L2_cache_data_port_util = 0.142
L2_cache_fill_port_util = 0.131

icnt_total_pkts_mem_to_simt=7819964
icnt_total_pkts_simt_to_mem=7819964
LD_mem_lat_dist  0 0 0 0 0 0 0 0 0 0 0 0 0 0 0 0 0 0 0 0 0 0 0 0 0 0 0
ST_mem_lat_dist  0 0 0 0 0 0 0 0 0 0 0 0 0 0 0 0 0 0 0 0 0 0 0 0 0 0 0
----------------------------Interconnect-DETAILS--------------------------------
Req_Network_injected_packets_num = 7819964
Req_Network_cycles = 1189244
Req_Network_injected_packets_per_cycle =       6.5756 
Req_Network_conflicts_per_cycle =      12.8532
Req_Network_conflicts_per_cycle_util =      14.2440
Req_Bank_Level_Parallism =       7.2871
Req_Network_in_buffer_full_per_cycle =       0.0000
Req_Network_in_buffer_avg_util =      47.7312
Req_Network_out_buffer_full_per_cycle =       0.3487
Req_Network_out_buffer_avg_util =      29.7819

Reply_Network_injected_packets_num = 7819964
Reply_Network_cycles = 1189244
Reply_Network_injected_packets_per_cycle =        6.5756
Reply_Network_conflicts_per_cycle =        3.0568
Reply_Network_conflicts_per_cycle_util =       3.3967
Reply_Bank_Level_Parallism =       7.3068
Reply_Network_in_buffer_full_per_cycle =       0.0000
Reply_Network_in_buffer_avg_util =       2.4295
Reply_Network_out_buffer_full_per_cycle =       0.0000
Reply_Network_out_buffer_avg_util =       0.2192
----------------------------END-of-Interconnect-DETAILS-------------------------


gpgpu_simulation_time = 0 days, 2 hrs, 21 min, 38 sec (8498 sec)
gpgpu_simulation_rate = 9985 (inst/sec)
gpgpu_simulation_rate = 139 (cycle/sec)
gpgpu_silicon_slowdown = 9820143x
GPGPU-Sim: synchronize waiting for inactive GPU simulation
GPGPU-Sim API: Stream Manager State
GPGPU-Sim: detected inactive GPU simulation thread
	iterations = 3.
	runtime [cuda_base] = 8494361.350000 ms.
Verifying...
	runtime [serial] = 37.577000 ms.
Correct
GPGPU-Sim: *** exit detected ***
