

        *** GPGPU-Sim Simulator Version 4.2.0  [build gpgpu-sim_git-commit-5e9d31b8132651796656877ecb58fde27177ba7a_modified_315.0] ***


GPGPU-Sim PTX: simulation mode 0 (can change with PTX_SIM_MODE_FUNC environment variable:
               1=functional simulation only, 0=detailed performance simulator)
GPGPU-Sim PTX: overriding embedded ptx with ptx file (PTX_SIM_USE_PTX_FILE is set)
GPGPU-Sim: Configuration options:

-save_embedded_ptx                      0 # saves ptx files embedded in binary as <n>.ptx
-keep                                   0 # keep intermediate files created by GPGPU-Sim when interfacing with external programs
-gpgpu_ptx_save_converted_ptxplus                    0 # Saved converted ptxplus to a file
-gpgpu_occupancy_sm_number                   75 # The SM number to pass to ptxas when getting register usage for computing GPU occupancy. This parameter is required in the config.
-ptx_opcode_latency_int           4,4,4,4,21 # Opcode latencies for integers <ADD,MAX,MUL,MAD,DIV,SHFL>Default 1,1,19,25,145,32
-ptx_opcode_latency_fp           4,4,4,4,39 # Opcode latencies for single precision floating points <ADD,MAX,MUL,MAD,DIV>Default 1,1,1,1,30
-ptx_opcode_latency_dp      64,64,64,64,330 # Opcode latencies for double precision floating points <ADD,MAX,MUL,MAD,DIV>Default 8,8,8,8,335
-ptx_opcode_latency_sfu                   21 # Opcode latencies for SFU instructionsDefault 8
-ptx_opcode_latency_tesnor                   64 # Opcode latencies for Tensor instructionsDefault 64
-ptx_opcode_initiation_int            2,2,2,2,2 # Opcode initiation intervals for integers <ADD,MAX,MUL,MAD,DIV,SHFL>Default 1,1,4,4,32,4
-ptx_opcode_initiation_fp            2,2,2,2,4 # Opcode initiation intervals for single precision floating points <ADD,MAX,MUL,MAD,DIV>Default 1,1,1,1,5
-ptx_opcode_initiation_dp      64,64,64,64,130 # Opcode initiation intervals for double precision floating points <ADD,MAX,MUL,MAD,DIV>Default 8,8,8,8,130
-ptx_opcode_initiation_sfu                    8 # Opcode initiation intervals for sfu instructionsDefault 8
-ptx_opcode_initiation_tensor                   64 # Opcode initiation intervals for tensor instructionsDefault 64
-cdp_latency         7200,8000,100,12000,1600 # CDP API latency <cudaStreamCreateWithFlags, cudaGetParameterBufferV2_init_perWarp, cudaGetParameterBufferV2_perKernel, cudaLaunchDeviceV2_init_perWarp, cudaLaunchDevicV2_perKernel>Default 7200,8000,100,12000,1600
-network_mode                           2 # Interconnection network mode
-inter_config_file                   mesh # Interconnection network config file
-icnt_in_buffer_limit                  512 # in_buffer_limit
-icnt_out_buffer_limit                  512 # out_buffer_limit
-icnt_subnets                           2 # subnets
-icnt_arbiter_algo                      1 # arbiter_algo
-icnt_verbose                           0 # inct_verbose
-icnt_grant_cycles                      1 # grant_cycles
-gpgpu_ptx_use_cuobjdump                    1 # Use cuobjdump to extract ptx and sass from binaries
-gpgpu_experimental_lib_support                    0 # Try to extract code from cuda libraries [Broken because of unknown cudaGetExportTable]
-checkpoint_option                      0 #  checkpointing flag (0 = no checkpoint)
-checkpoint_kernel                      1 #  checkpointing during execution of which kernel (1- 1st kernel)
-checkpoint_CTA                         0 #  checkpointing after # of CTA (< less than total CTA)
-resume_option                          0 #  resume flag (0 = no resume)
-resume_kernel                          0 #  Resume from which kernel (1= 1st kernel)
-resume_CTA                             0 #  resume from which CTA 
-checkpoint_CTA_t                       0 #  resume from which CTA 
-checkpoint_insn_Y                      0 #  resume from which CTA 
-gpgpu_ptx_convert_to_ptxplus                    0 # Convert SASS (native ISA) to ptxplus and run ptxplus
-gpgpu_ptx_force_max_capability                   75 # Force maximum compute capability
-gpgpu_ptx_inst_debug_to_file                    0 # Dump executed instructions' debug information to file
-gpgpu_ptx_inst_debug_file       inst_debug.txt # Executed instructions' debug output file
-gpgpu_ptx_inst_debug_thread_uid                    1 # Thread UID for executed instructions' debug output
-gpgpu_simd_model                       1 # 1 = post-dominator
-gpgpu_shader_core_pipeline              1024:32 # shader core pipeline config, i.e., {<nthread>:<warpsize>}
-gpgpu_tex_cache:l1  N:4:128:256,L:R:m:N:L,T:512:8,128:2 # per-shader L1 texture cache  (READ-ONLY) config  {<nsets>:<bsize>:<assoc>,<rep>:<wr>:<alloc>:<wr_alloc>,<mshr>:<N>:<merge>,<mq>:<rf>}
-gpgpu_const_cache:l1 N:128:64:8,L:R:f:N:L,S:2:64,4 # per-shader L1 constant memory cache  (READ-ONLY) config  {<nsets>:<bsize>:<assoc>,<rep>:<wr>:<alloc>:<wr_alloc>,<mshr>:<N>:<merge>,<mq>} 
-gpgpu_cache:il1     N:64:128:16,L:R:f:N:L,S:2:48,4 # shader L1 instruction cache config  {<nsets>:<bsize>:<assoc>,<rep>:<wr>:<alloc>:<wr_alloc>,<mshr>:<N>:<merge>,<mq>} 
-gpgpu_cache:dl1     S:4:128:64,L:T:m:L:L,A:256:32,16:0,32 # per-shader L1 data cache config  {<nsets>:<bsize>:<assoc>,<rep>:<wr>:<alloc>:<wr_alloc>,<mshr>:<N>:<merge>,<mq> | none}
-gpgpu_l1_cache_write_ratio                   25 # L1D write ratio
-gpgpu_l1_banks                         4 # The number of L1 cache banks
-gpgpu_l1_banks_byte_interleaving                   32 # l1 banks byte interleaving granularity
-gpgpu_l1_banks_hashing_function                    0 # l1 banks hashing function
-gpgpu_l1_latency                      32 # L1 Hit Latency
-gpgpu_smem_latency                    30 # smem Latency
-gpgpu_cache:dl1PrefL1                 none # per-shader L1 data cache config  {<nsets>:<bsize>:<assoc>,<rep>:<wr>:<alloc>:<wr_alloc>,<mshr>:<N>:<merge>,<mq> | none}
-gpgpu_cache:dl1PrefShared                 none # per-shader L1 data cache config  {<nsets>:<bsize>:<assoc>,<rep>:<wr>:<alloc>:<wr_alloc>,<mshr>:<N>:<merge>,<mq> | none}
-gpgpu_gmem_skip_L1D                    0 # global memory access skip L1D cache (implements -Xptxas -dlcm=cg, default=no skip)
-gpgpu_perfect_mem                      0 # enable perfect memory mode (no cache miss)
-n_regfile_gating_group                    4 # group of lanes that should be read/written together)
-gpgpu_clock_gated_reg_file                    0 # enable clock gated reg file for power calculations
-gpgpu_clock_gated_lanes                    0 # enable clock gated lanes for power calculations
-gpgpu_shader_registers                65536 # Number of registers per shader core. Limits number of concurrent CTAs. (default 8192)
-gpgpu_registers_per_block                65536 # Maximum number of registers per CTA. (default 8192)
-gpgpu_ignore_resources_limitation                    0 # gpgpu_ignore_resources_limitation (default 0)
-gpgpu_shader_cta                      16 # Maximum number of concurrent CTAs in shader (default 32)
-gpgpu_num_cta_barriers                   16 # Maximum number of named barriers per CTA (default 16)
-gpgpu_n_clusters                      30 # number of processing clusters
-gpgpu_n_cores_per_cluster                    1 # number of simd cores per cluster
-gpgpu_n_cluster_ejection_buffer_size                   32 # number of packets in ejection buffer
-gpgpu_n_ldst_response_buffer_size                    2 # number of response packets in ld/st unit ejection buffer
-gpgpu_shmem_per_block                49152 # Size of shared memory per thread block or CTA (default 48kB)
-gpgpu_shmem_size                   65536 # Size of shared memory per shader core (default 16kB)
-gpgpu_shmem_option                 32,64 # Option list of shared memory sizes
-gpgpu_unified_l1d_size                   96 # Size of unified data cache(L1D + shared memory) in KB
-gpgpu_adaptive_cache_config                    1 # adaptive_cache_config
-gpgpu_shmem_sizeDefault                65536 # Size of shared memory per shader core (default 16kB)
-gpgpu_shmem_size_PrefL1                16384 # Size of shared memory per shader core (default 16kB)
-gpgpu_shmem_size_PrefShared                16384 # Size of shared memory per shader core (default 16kB)
-gpgpu_shmem_num_banks                   32 # Number of banks in the shared memory in each shader core (default 16)
-gpgpu_shmem_limited_broadcast                    0 # Limit shared memory to do one broadcast per cycle (default on)
-gpgpu_shmem_warp_parts                    1 # Number of portions a warp is divided into for shared memory bank conflict check 
-gpgpu_mem_unit_ports                    1 # The number of memory transactions allowed per core cycle
-gpgpu_shmem_warp_parts                    1 # Number of portions a warp is divided into for shared memory bank conflict check 
-gpgpu_warpdistro_shader                   -1 # Specify which shader core to collect the warp size distribution from
-gpgpu_warp_issue_shader                    0 # Specify which shader core to collect the warp issue distribution from
-gpgpu_local_mem_map                    1 # Mapping from local memory space address to simulated GPU physical address space (default = enabled)
-gpgpu_num_reg_banks                    8 # Number of register banks (default = 8)
-gpgpu_reg_bank_use_warp_id                    0 # Use warp ID in mapping registers to banks (default = off)
-gpgpu_sub_core_model                    1 # Sub Core Volta/Pascal model (default = off)
-gpgpu_enable_specialized_operand_collector                    0 # enable_specialized_operand_collector
-gpgpu_operand_collector_num_units_sp                    4 # number of collector units (default = 4)
-gpgpu_operand_collector_num_units_dp                    0 # number of collector units (default = 0)
-gpgpu_operand_collector_num_units_sfu                    4 # number of collector units (default = 4)
-gpgpu_operand_collector_num_units_int                    0 # number of collector units (default = 0)
-gpgpu_operand_collector_num_units_tensor_core                    4 # number of collector units (default = 4)
-gpgpu_operand_collector_num_units_mem                    2 # number of collector units (default = 2)
-gpgpu_operand_collector_num_units_gen                    8 # number of collector units (default = 0)
-gpgpu_operand_collector_num_in_ports_sp                    1 # number of collector unit in ports (default = 1)
-gpgpu_operand_collector_num_in_ports_dp                    0 # number of collector unit in ports (default = 0)
-gpgpu_operand_collector_num_in_ports_sfu                    1 # number of collector unit in ports (default = 1)
-gpgpu_operand_collector_num_in_ports_int                    0 # number of collector unit in ports (default = 0)
-gpgpu_operand_collector_num_in_ports_tensor_core                    1 # number of collector unit in ports (default = 1)
-gpgpu_operand_collector_num_in_ports_mem                    1 # number of collector unit in ports (default = 1)
-gpgpu_operand_collector_num_in_ports_gen                    8 # number of collector unit in ports (default = 0)
-gpgpu_operand_collector_num_out_ports_sp                    1 # number of collector unit in ports (default = 1)
-gpgpu_operand_collector_num_out_ports_dp                    0 # number of collector unit in ports (default = 0)
-gpgpu_operand_collector_num_out_ports_sfu                    1 # number of collector unit in ports (default = 1)
-gpgpu_operand_collector_num_out_ports_int                    0 # number of collector unit in ports (default = 0)
-gpgpu_operand_collector_num_out_ports_tensor_core                    1 # number of collector unit in ports (default = 1)
-gpgpu_operand_collector_num_out_ports_mem                    1 # number of collector unit in ports (default = 1)
-gpgpu_operand_collector_num_out_ports_gen                    8 # number of collector unit in ports (default = 0)
-gpgpu_coalesce_arch                   75 # Coalescing arch (GT200 = 13, Fermi = 20)
-gpgpu_num_sched_per_core                    4 # Number of warp schedulers per core
-gpgpu_max_insn_issue_per_warp                    1 # Max number of instructions that can be issued per warp in one cycle by scheduler (either 1 or 2)
-gpgpu_dual_issue_diff_exec_units                    1 # should dual issue use two different execution unit resources (Default = 1)
-gpgpu_simt_core_sim_order                    1 # Select the simulation order of cores in a cluster (0=Fix, 1=Round-Robin)
-gpgpu_pipeline_widths 4,4,4,4,4,4,4,4,4,4,8,4,4 # Pipeline widths ID_OC_SP,ID_OC_DP,ID_OC_INT,ID_OC_SFU,ID_OC_MEM,OC_EX_SP,OC_EX_DP,OC_EX_INT,OC_EX_SFU,OC_EX_MEM,EX_WB,ID_OC_TENSOR_CORE,OC_EX_TENSOR_CORE
-gpgpu_tensor_core_avail                    1 # Tensor Core Available (default=0)
-gpgpu_num_sp_units                     4 # Number of SP units (default=1)
-gpgpu_num_dp_units                     4 # Number of DP units (default=0)
-gpgpu_num_int_units                    4 # Number of INT units (default=0)
-gpgpu_num_sfu_units                    4 # Number of SF units (default=1)
-gpgpu_num_tensor_core_units                    4 # Number of tensor_core units (default=1)
-gpgpu_num_mem_units                    1 # Number if ldst units (default=1) WARNING: not hooked up to anything
-gpgpu_scheduler                      lrr # Scheduler configuration: < lrr | gto | two_level_active > If two_level_active:<num_active_warps>:<inner_prioritization>:<outer_prioritization>For complete list of prioritization values see shader.h enum scheduler_prioritization_typeDefault: gto
-gpgpu_concurrent_kernel_sm                    0 # Support concurrent kernels on a SM (default = disabled)
-gpgpu_perfect_inst_const_cache                    1 # perfect inst and const cache mode, so all inst and const hits in the cache(default = disabled)
-gpgpu_inst_fetch_throughput                    4 # the number of fetched intruction per warp each cycle
-gpgpu_reg_file_port_throughput                    2 # the number ports of the register file
-specialized_unit_1         0,4,4,4,4,BRA # specialized unit config {<enabled>,<num_units>:<latency>:<initiation>,<ID_OC_SPEC>:<OC_EX_SPEC>,<NAME>}
-specialized_unit_2         0,4,4,4,4,BRA # specialized unit config {<enabled>,<num_units>:<latency>:<initiation>,<ID_OC_SPEC>:<OC_EX_SPEC>,<NAME>}
-specialized_unit_3         0,4,4,4,4,BRA # specialized unit config {<enabled>,<num_units>:<latency>:<initiation>,<ID_OC_SPEC>:<OC_EX_SPEC>,<NAME>}
-specialized_unit_4         0,4,4,4,4,BRA # specialized unit config {<enabled>,<num_units>:<latency>:<initiation>,<ID_OC_SPEC>:<OC_EX_SPEC>,<NAME>}
-specialized_unit_5         0,4,4,4,4,BRA # specialized unit config {<enabled>,<num_units>:<latency>:<initiation>,<ID_OC_SPEC>:<OC_EX_SPEC>,<NAME>}
-specialized_unit_6         0,4,4,4,4,BRA # specialized unit config {<enabled>,<num_units>:<latency>:<initiation>,<ID_OC_SPEC>:<OC_EX_SPEC>,<NAME>}
-specialized_unit_7         0,4,4,4,4,BRA # specialized unit config {<enabled>,<num_units>:<latency>:<initiation>,<ID_OC_SPEC>:<OC_EX_SPEC>,<NAME>}
-specialized_unit_8         0,4,4,4,4,BRA # specialized unit config {<enabled>,<num_units>:<latency>:<initiation>,<ID_OC_SPEC>:<OC_EX_SPEC>,<NAME>}
-gpgpu_perf_sim_memcpy                    1 # Fill the L2 cache on memcpy
-gpgpu_simple_dram_model                    0 # simple_dram_model with fixed latency and BW
-gpgpu_dram_scheduler                    1 # 0 = fifo, 1 = FR-FCFS (defaul)
-gpgpu_dram_partition_queues          64:64:64:64 # i2$:$2d:d2$:$2i
-l2_ideal                               0 # Use a ideal L2 cache that always hit
-gpgpu_cache:dl2     S:64:128:16,L:B:m:L:P,A:192:4,32:0,32 # unified banked L2 data cache config  {<nsets>:<bsize>:<assoc>,<rep>:<wr>:<alloc>:<wr_alloc>,<mshr>:<N>:<merge>,<mq>}
-gpgpu_cache:dl2_texture_only                    0 # L2 cache used for texture only
-gpgpu_n_mem                           12 # number of memory modules (e.g. memory controllers) in gpu
-gpgpu_n_sub_partition_per_mchannel                    2 # number of memory subpartition in each memory module
-gpgpu_n_mem_per_ctrlr                    1 # number of memory chips per memory controller
-gpgpu_memlatency_stat                   14 # track and display latency statistics 0x2 enables MC, 0x4 enables queue logs
-gpgpu_frfcfs_dram_sched_queue_size                   64 # 0 = unlimited (default); # entries per chip
-gpgpu_dram_return_queue_size                  192 # 0 = unlimited (default); # entries per chip
-gpgpu_dram_buswidth                    2 # default = 4 bytes (8 bytes per cycle at DDR)
-gpgpu_dram_burst_length                   16 # Burst length of each DRAM request (default = 4 data bus cycle)
-dram_data_command_freq_ratio                    4 # Frequency ratio between DRAM data bus and command bus (default = 2 times, i.e. DDR)
-gpgpu_dram_timing_opt nbk=16:CCD=4:RRD=12:RCD=24:RAS=55:RP=24:RC=78:CL=24:WL=8:CDLR=10:WR=24:nbkgrp=4:CCDL=6:RTPL=4 # DRAM timing parameters = {nbk:tCCD:tRRD:tRCD:tRAS:tRP:tRC:CL:WL:tCDLR:tWR:nbkgrp:tCCDL:tRTPL}
-gpgpu_l2_rop_latency                  194 # ROP queue latency (default 85)
-dram_latency                          96 # DRAM latency (default 30)
-dram_dual_bus_interface                    0 # dual_bus_interface (default = 0) 
-dram_bnk_indexing_policy                    0 # dram_bnk_indexing_policy (0 = normal indexing, 1 = Xoring with the higher bits) (Default = 0)
-dram_bnkgrp_indexing_policy                    1 # dram_bnkgrp_indexing_policy (0 = take higher bits, 1 = take lower bits) (Default = 0)
-dram_seperate_write_queue_enable                    0 # Seperate_Write_Queue_Enable
-dram_write_queue_size             32:28:16 # Write_Queue_Size
-dram_elimnate_rw_turnaround                    0 # elimnate_rw_turnaround i.e set tWTR and tRTW = 0
-icnt_flit_size                        40 # icnt_flit_size
-icnt_flit_size                        40 # icnt_flit_size
-mem_profiler                           0 # memory access runtime profiling (0 = not enabled)
-gpgpu_mem_addr_mapping dramid@8;00000000.00000000.00000000.00000000.0000RRRR.RRRRRRRR.RBBBCCCC.BCCSSSSS # mapping memory address to dram model {dramid@<start bit>;<memory address map>}
-gpgpu_mem_addr_test                    0 # run sweep test to check address mapping for aliased address
-gpgpu_mem_address_mask                    1 # 0 = old addressing mask, 1 = new addressing mask, 2 = new add. mask + flipped bank sel and chip sel bits
-gpgpu_memory_partition_indexing                    0 # 0 = no indexing, 1 = bitwise xoring, 2 = IPoly, 3 = custom indexing
-accelwattch_xml_file accelwattch_sass_sim.xml # AccelWattch XML file
-power_simulation_enabled                    1 # Turn on power simulator (1=On, 0=Off)
-power_per_cycle_dump                    1 # Dump detailed power output each cycle
-hw_perf_file_name            hw_perf.csv # Hardware Performance Statistics file
-hw_perf_bench_name    hw_perf_bench_name # Kernel Name in Hardware Performance Statistics file
-power_simulation_mode                    0 # Switch performance counter input for power simulation (0=Sim, 1=HW, 2=HW-Sim Hybrid)
-dvfs_enabled                           1 # Turn on DVFS for power model
-aggregate_power_stats                    0 # Accumulate power across all kernels
-accelwattch_hybrid_perfsim_L1_RH                    0 # Get L1 Read Hits for Accelwattch-Hybrid from Accel-Sim
-accelwattch_hybrid_perfsim_L1_RM                    0 # Get L1 Read Misses for Accelwattch-Hybrid from Accel-Sim
-accelwattch_hybrid_perfsim_L1_WH                    0 # Get L1 Write Hits for Accelwattch-Hybrid from Accel-Sim
-accelwattch_hybrid_perfsim_L1_WM                    0 # Get L1 Write Misses for Accelwattch-Hybrid from Accel-Sim
-accelwattch_hybrid_perfsim_L2_RH                    0 # Get L2 Read Hits for Accelwattch-Hybrid from Accel-Sim
-accelwattch_hybrid_perfsim_L2_RM                    0 # Get L2 Read Misses for Accelwattch-Hybrid from Accel-Sim
-accelwattch_hybrid_perfsim_L2_WH                    0 # Get L2 Write Hits for Accelwattch-Hybrid from Accel-Sim
-accelwattch_hybrid_perfsim_L2_WM                    0 # Get L2 Write Misses for Accelwattch-Hybrid from Accel-Sim
-accelwattch_hybrid_perfsim_CC_ACC                    0 # Get Constant Cache Acesses for Accelwattch-Hybrid from Accel-Sim
-accelwattch_hybrid_perfsim_SHARED_ACC                    0 # Get Shared Memory Acesses for Accelwattch-Hybrid from Accel-Sim
-accelwattch_hybrid_perfsim_DRAM_RD                    0 # Get DRAM Reads for Accelwattch-Hybrid from Accel-Sim
-accelwattch_hybrid_perfsim_DRAM_WR                    0 # Get DRAM Writes for Accelwattch-Hybrid from Accel-Sim
-accelwattch_hybrid_perfsim_NOC                    0 # Get Interconnect Acesses for Accelwattch-Hybrid from Accel-Sim
-accelwattch_hybrid_perfsim_PIPE_DUTY                    0 # Get Pipeline Duty Cycle Acesses for Accelwattch-Hybrid from Accel-Sim
-accelwattch_hybrid_perfsim_NUM_SM_IDLE                    0 # Get Number of Idle SMs for Accelwattch-Hybrid from Accel-Sim
-accelwattch_hybrid_perfsim_CYCLES                    0 # Get Executed Cycles for Accelwattch-Hybrid from Accel-Sim
-accelwattch_hybrid_perfsim_VOLTAGE                    0 # Get Chip Voltage for Accelwattch-Hybrid from Accel-Sim
-power_trace_enabled                    0 # produce a file for the power trace (1=On, 0=Off)
-power_trace_zlevel                     0 # Compression level of the power trace output log (0=no comp, 9=highest)
-steady_power_levels_enabled                    0 # produce a file for the steady power levels (1=On, 0=Off)
-steady_state_definition                  8:4 # allowed deviation:number of samples
-gpgpu_max_cycle                        0 # terminates gpu simulation early (0 = no limit)
-gpgpu_max_insn                         0 # terminates gpu simulation early (0 = no limit)
-gpgpu_max_cta                          0 # terminates gpu simulation early (0 = no limit)
-gpgpu_max_completed_cta                    0 # terminates gpu simulation early (0 = no limit)
-gpgpu_runtime_stat                  1000 # display runtime statistics such as dram utilization {<freq>:<flag>}
-liveness_message_freq                    1 # Minimum number of seconds between simulation liveness messages (0 = always print)
-gpgpu_compute_capability_major                    7 # Major compute capability version number
-gpgpu_compute_capability_minor                    5 # Minor compute capability version number
-gpgpu_flush_l1_cache                    1 # Flush L1 cache at the end of each kernel call
-gpgpu_flush_l2_cache                    0 # Flush L2 cache at the end of each kernel call
-gpgpu_deadlock_detect                    1 # Stop the simulation at deadlock (1=on (default), 0=off)
-gpgpu_ptx_instruction_classification                    0 # if enabled will classify ptx instruction types per kernel (Max 255 kernels now)
-gpgpu_ptx_sim_mode                     0 # Select between Performance (default) or Functional simulation (1)
-gpgpu_clock_domains 1365:1365:1365:3500.5 # Clock Domain Frequencies in MhZ {<Core Clock>:<ICNT Clock>:<L2 Clock>:<DRAM Clock>}
-gpgpu_max_concurrent_kernel                  128 # maximum kernels that can run concurrently on GPU, set this value according to max resident grids for your compute capability
-gpgpu_cflog_interval                    0 # Interval between each snapshot in control flow logger
-visualizer_enabled                     0 # Turn on visualizer output (1=On, 0=Off)
-visualizer_outputfile                 NULL # Specifies the output log file for visualizer
-visualizer_zlevel                      6 # Compression level of the visualizer output log (0=no comp, 9=highest)
-gpgpu_stack_size_limit                 1024 # GPU thread stack size
-gpgpu_heap_size_limit              8388608 # GPU malloc heap size 
-gpgpu_runtime_sync_depth_limit                    2 # GPU device runtime synchronize depth
-gpgpu_runtime_pending_launch_count_limit                 2048 # GPU device runtime pending launch count
-trace_enabled                          0 # Turn on traces
-trace_components                    none # comma seperated list of traces to enable. Complete list found in trace_streams.tup. Default none
-trace_sampling_core                    0 # The core which is printed using CORE_DPRINTF. Default 0
-trace_sampling_memory_partition                   -1 # The memory partition which is printed using MEMPART_DPRINTF. Default -1 (i.e. all)
-enable_ptx_file_line_stats                    1 # Turn on PTX source line statistic profiling. (1 = On)
-ptx_line_stats_filename gpgpu_inst_stats.txt # Output file for PTX source line statistics.
-gpgpu_kernel_launch_latency                 5000 # Kernel launch latency in cycles. Default: 0
-gpgpu_cdp_enabled                      0 # Turn on CDP
-gpgpu_TB_launch_latency                    0 # thread block launch latency in cycles. Default: 0
-mem_runtime_stat                     100 # memory access runtime profiling sampling13857925da71462a6e7457567930a073  /home/pars/Documents/sim_3/pr_base
Extracting PTX file and ptxas options    1: pr_base.1.sm_75.ptx -arch=sm_75
 freq
-L1D_metrics                            0 # memory access runtime profiling for L1 data cache
-IPC_per_prof_interval                    0 # IPC per profiling interval
-instruction_monitor                    0 # Instruction monitor
-noncoal_metrics                        0 # memory access runtime profiling for shared memory
-L2_metrics                             0 # memory access runtime profiling for L2 cache
-DRAM_metrics                           0 # memory access runtime profiling for DRAM
-Shmem_metrics                          0 # memory access runtime profiling for noncoalesced accesses
-store_enable                           0 # Enable stores for memory profiling
-accumulate_stats                       0 # Accumulate stats for the memory profiling
-dump_enable                            0 # Process dump enable flag - (def = 0)
-flush_l1d                              0 # Enable flushings for L1D caches - (default = 0)
-flush_l2                               0 # Enable flushings for L2 caches - (default = 0)
-flush_dram                             0 # Enable flushings for DRAM - (default = 0)
-flush_noncoalesceds                    0 # Enable flushings for non coalesced accesses - (default = 0)
-flush_shmems                           0 # Enable flushings for shared memory accesses - (default = 0)
-error_percentage          21474836480001 # Error percentage for the flushes - (default = 1)
-dump_sampling_cycle       21474836485000 # Dump sampling frequency - (default = 5000)
-flush_acc_type                         2 # Flush access types
-monitor_sampling_cycle                 5000 # Monitoring sampling cycle - (default = 5000)
DRAM Timing Options:
nbk                                    16 # number of banks
CCD                                     4 # column to column delay
RRD                                    12 # minimal delay between activation of rows in different banks
RCD                                    24 # row to column delay
RAS                                    55 # time needed to activate row
RP                                     24 # time needed to precharge (deactivate) row
RC                                     78 # row cycle time
CDLR                                   10 # switching from write to read (changes tWTR)
WR                                     24 # last data-in to row precharge
CL                                     24 # CAS latency
WL                                      8 # Write latency
nbkgrp                                  4 # number of bank groups
CCDL                                    6 # column to column delay between accesses to different bank groups
RTPL                                    4 # read to precharge delay between accesses to different bank groups
Total number of memory sub partition = 24
addr_dec_mask[CHIP]  = 0000000000000000 	high:64 low:0
addr_dec_mask[BK]    = 0000000000007080 	high:15 low:7
addr_dec_mask[ROW]   = 000000000fff8000 	high:28 low:15
addr_dec_mask[COL]   = 0000000000000f7f 	high:12 low:0
addr_dec_mask[BURST] = 000000000000001f 	high:5 low:0
sub_partition_id_mask = 0000000000000080
GPGPU-Sim uArch: clock freqs: 1365000000.000000:1365000000.000000:1365000000.000000:3500500000.000000
GPGPU-Sim uArch: clock periods: 0.00000000073260073260:0.00000000073260073260:0.00000000073260073260:0.00000000028567347522
*** Initializing Memory Statistics ***
GPGPU-Sim uArch: performance model initialization complete.
self exe links to: /home/pars/Documents/sim_3/pr_base
self exe links to: /home/pars/Documents/sim_3/pr_base
11.0
GPGPU-Sim PTX: __cudaRegisterFatBinary, fat_cubin_handle = 1, filename=default
self exe links to: /home/pars/Documents/sim_3/pr_base
Running md5sum using "md5sum /home/pars/Documents/sim_3/pr_base "
self exe links to: /home/pars/Documents/sim_3/pr_base
Extracting specific PTX file named pr_base.1.sm_75.ptx 
GPGPU-Sim PTX: __cudaRegisterFunction _ZN3cub11EmptyKernelIvEEvv : hostFun 0x0x56462fa902c8, fat_cubin_handle = 1
GPGPU-Sim PTX: Parsing pr_base.1.sm_75.ptx
GPGPU-Sim PTX: allocating global region for "_ZN37_INTERNAL_61f75dc7_7_base_cu_297024296thrust6system6detail10sequential3seqE" from 0x100 to 0x101 (global memory space)
GPGPU-Sim PTX: allocating global region for "_ZN37_INTERNAL_61f75dc7_7_base_cu_297024296thrust12placeholders2_1E" from 0x101 to 0x102 (global memory space)
GPGPU-Sim PTX: allocating global region for "_ZN37_INTERNAL_61f75dc7_7_base_cu_297024296thrust12placeholders2_2E" from 0x102 to 0x103 (global memory space)
GPGPU-Sim PTX: allocating global region for "_ZN37_INTERNAL_61f75dc7_7_base_cu_297024296thrust12placeholders2_3E" from 0x103 to 0x104 (global memory space)
GPGPU-Sim PTX: allocating global region for "_ZN37_INTERNAL_61f75dc7_7_base_cu_297024296thrust12placeholders2_4E" from 0x104 to 0x105 (global memory space)
GPGPU-Sim PTX: allocating global region for "_ZN37_INTERNAL_61f75dc7_7_base_cu_297024296thrust12placeholders2_5E" from 0x105 to 0x106 (global memory space)
GPGPU-Sim PTX: allocating global region for "_ZN37_INTERNAL_61f75dc7_7_base_cu_297024296thrust12placeholders2_6E" from 0x106 to 0x107 (global memory space)
GPGPU-Sim PTX: allocating global region for "_ZN37_INTERNAL_61f75dc7_7_base_cu_297024296thrust12placeholders2_7E" from 0x107 to 0x108 (global memory space)
GPGPU-Sim PTX: allocating global region for "_ZN37_INTERNAL_61f75dc7_7_base_cu_297024296thrust12placeholders2_8E" from 0x108 to 0x109 (global memory space)
GPGPU-Sim PTX: allocating global region for "_ZN37_INTERNAL_61f75dc7_7_base_cu_297024296thrust12placeholders2_9E" from 0x109 to 0x10a (global memory space)
GPGPU-Sim PTX: allocating global region for "_ZN37_INTERNAL_61f75dc7_7_base_cu_297024296thrust12placeholders3_10E" from 0x10a to 0x10b (global memory space)
GPGPU-Sim PTX: instruction assembly for function '_Z7contribiPfPiS_'...   done.
GPGPU-Sim PTX: Warning -- ignoring pragma 'nounroll'
GPGPU-Sim PTX: instruction assembly for function '_Z9pull_stepiPKmPKiPfS3_'...   done.
GPGPU-Sim PTX: allocating shared region for "_ZZ6l1normiPfS_S_fE12temp_storage" from 0x0 to 0x2c (shared memory space)
GPGPU-Sim PTX: instruction assembly for function '_Z6l1normiPfS_S_f'...   done.
GPGPU-Sim PTX: allocating shared region for "_ZZ10pull_fusediPKmPKiPfS3_S3_fE12temp_storage" from 0x0 to 0x2c (shared memory space)
GPGPU-Sim PTX: Warning -- ignoring pragma 'nounroll'
GPGPU-Sim PTX: instruction assembly for function '_Z10pull_fusediPKmPKiPfS3_S3_f'...   done.
GPGPU-Sim PTX: instruction assembly for function '_ZN3cub11EmptyKernelIvEEvv'...   done.
GPGPU-Sim PTX: finished parsing EMBEDDED .ptx file pr_base.1.sm_75.ptx
GPGPU-Sim PTX: loading globals with explicit initializers... 
GPGPU-Sim PTX: finished loading globals (0 bytes total).
GPGPU-Sim PTX: loading constants with explicit initializers...  done.
GPGPU-Sim PTX: Loading PTXInfo from pr_base.1.sm_75.ptx
GPGPU-Sim PTX: Kernel '_ZN3cub11EmptyKernelIvEEvv' : regs=4, lmem=0, smem=0, cmem=352
GPGPU-Sim PTX: Kernel '_Z10pull_fusediPKmPKiPfS3_S3_f' : regs=44, lmem=0, smem=44, cmem=404
GPGPU-Sim PTX: Kernel '_Z6l1normiPfS_S_f' : regs=18, lmem=0, smem=44, cmem=388
GPGPU-Sim PTX: Kernel '_Z9pull_stepiPKmPKiPfS3_' : regs=43, lmem=0, smem=0, cmem=392
GPGPU-Sim PTX: Kernel '_Z7contribiPfPiS_' : regs=15, lmem=0, smem=0, cmem=384
GPGPU-Sim PTX: __cudaRegisterFunction _Z10pull_fusediPKmPKiPfS3_S3_f : hostFun 0x0x56462fa8fa62, fat_cubin_handle = 1
GPGPU-Sim PTX: __cudaRegisterFunction _Z6l1normiPfS_S_f : hostFun 0x0x56462fa8f858, fat_cubin_handle = 1
GPGPU-Sim PTX: __cudaRegisterFunction _Z9pull_stepiPKmPKiPfS3_ : hostFun 0x0x56462fa8f69a, fat_cubin_handle = 1
GPGPU-Sim PTX: __cudaRegisterFunction _Z7contribiPfPiS_ : hostFun 0x0x56462fa8f4df, fat_cubin_handle = 1
GPGPU-Sim PTX: __cudaRegisterVar: hostVar = 0x56462fa916f5; deviceAddress = _ZN37_INTERNAL_61f75dc7_7_base_cu_297024296thrust6system6detail10sequential3seqE; deviceName = _ZN37_INTERNAL_61f75dc7_7_base_cu_297024296thrust6system6detail10sequential3seqE
GPGPU-Sim PTX: __cudaRegisterVar: Registering const memory space of 1 bytes
GPGPU-Sim PTX registering global _ZN37_INTERNAL_61f75dc7_7_base_cu_297024296thrust6system6detail10sequential3seqE hostVar to name mapping
GPGPU-Sim PTX: __cudaRegisterVar: hostVar = 0x56462fa91830; deviceAddress = _ZN37_INTERNAL_61f75dc7_7_base_cu_297024296thrust12placeholders2_1E; deviceName = _ZN37_INTERNAL_61f75dc7_7_base_cu_297024296thrust12placeholders2_1E
GPGPU-Sim PTX: __cudaRegisterVar: Registering const memory space of 1 bytes
GPGPU-Sim PTX registering global _ZN37_INTERNAL_61f75dc7_7_base_cu_297024296thrust12placeholders2_1E hostVar to name mapping
GPGPU-Sim PTX: __cudaRegisterVar: hostVar = 0x56462fa91831; deviceAddress = _ZN37_INTERNAL_61f75dc7_7_base_cu_297024296thrust12placeholders2_2E; deviceName = _ZN37_INTERNAL_61f75dc7_7_base_cu_297024296thrust12placeholders2_2E
GPGPU-Sim PTX: __cudaRegisterVar: Registering const memory space of 1 bytes
GPGPU-Sim PTX registering global _ZN37_INTERNAL_61f75dc7_7_base_cu_297024296thrust12placeholders2_2E hostVar to name mapping
GPGPU-Sim PTX: __cudaRegisterVar: hostVar = 0x56462fa91832; deviceAddress = _ZN37_INTERNAL_61f75dc7_7_base_cu_297024296thrust12placeholders2_3E; deviceName = _ZN37_INTERNAL_61f75dc7_7_base_cu_297024296thrust12placeholders2_3E
GPGPU-Sim PTX: __cudaRegisterVar: Registering const memory space of 1 bytes
GPGPU-Sim PTX registering global _ZN37_INTERNAL_61f75dc7_7_base_cu_297024296thrust12placeholders2_3E hostVar to name mapping
GPGPU-Sim PTX: __cudaRegisterVar: hostVar = 0x56462fa91833; deviceAddress = _ZN37_INTERNAL_61f75dc7_7_base_cu_297024296thrust12placeholders2_4E; deviceName = _ZN37_INTERNAL_61f75dc7_7_base_cu_297024296thrust12placeholders2_4E
GPGPU-Sim PTX: __cudaRegisterVar: Registering const memory space of 1 bytes
GPGPU-Sim PTX registering global _ZN37_INTERNAL_61f75dc7_7_base_cu_297024296thrust12placeholders2_4E hostVar to name mapping
GPGPU-Sim PTX: __cudaRegisterVar: hostVar = 0x56462fa91834; deviceAddress = _ZN37_INTERNAL_61f75dc7_7_base_cu_297024296thrust12placeholders2_5E; deviceName = _ZN37_INTERNAL_61f75dc7_7_base_cu_297024296thrust12placeholders2_5E
GPGPU-Sim PTX: __cudaRegisterVar: Registering const memory space of 1 bytes
GPGPU-Sim PTX registering global _ZN37_INTERNAL_61f75dc7_7_base_cu_297024296thrust12placeholders2_5E hostVar to name mapping
GPGPU-Sim PTX: __cudaRegisterVar: hostVar = 0x56462fa91835; deviceAddress = _ZN37_INTERNAL_61f75dc7_7_base_cu_297024296thrust12placeholders2_6E; deviceName = _ZN37_INTERNAL_61f75dc7_7_base_cu_297024296thrust12placeholders2_6E
GPGPU-Sim PTX: __cudaRegisterVar: Registering const memory space of 1 bytes
GPGPU-Sim PTX registering global _ZN37_INTERNAL_61f75dc7_7_base_cu_297024296thrust12placeholders2_6E hostVar to name mapping
GPGPU-Sim PTX: __cudaRegisterVar: hostVar = 0x56462fa91836; deviceAddress = _ZN37_INTERNAL_61f75dc7_7_base_cu_297024296thrust12placeholders2_7E; deviceName = _ZN37_INTERNAL_61f75dc7_7_base_cu_297024296thrust12placeholders2_7E
GPGPU-Sim PTX: __cudaRegisterVar: Registering const memory space of 1 bytes
GPGPU-Sim PTX registering global _ZN37_INTERNAL_61f75dc7_7_base_cu_297024296thrust12placeholders2_7E hostVar to name mapping
GPGPU-Sim PTX: __cudaRegisterVar: hostVar = 0x56462fa91837; deviceAddress = _ZN37_INTERNAL_61f75dc7_7_base_cu_297024296thrust12placeholders2_8E; deviceName = _ZN37_INTERNAL_61f75dc7_7_base_cu_297024296thrust12placeholders2_8E
GPGPU-Sim PTX: __cudaRegisterVar: Registering const memory space of 1 bytes
GPGPU-Sim PTX registering global _ZN37_INTERNAL_61f75dc7_7_base_cu_297024296thrust12placeholders2_8E hostVar to name mapping
GPGPU-Sim PTX: __cudaRegisterVar: hostVar = 0x56462fa91838; deviceAddress = _ZN37_INTERNAL_61f75dc7_7_base_cu_297024296thrust12placeholders2_9E; deviceName = _ZN37_INTERNAL_61f75dc7_7_base_cu_297024296thrust12placeholders2_9E
GPGPU-Sim PTX: __cudaRegisterVar: Registering const memory space of 1 bytes
GPGPU-Sim PTX registering global _ZN37_INTERNAL_61f75dc7_7_base_cu_297024296thrust12placeholders2_9E hostVar to name mapping
GPGPU-Sim PTX: __cudaRegisterVar: hostVar = 0x56462fa91839; deviceAddress = _ZN37_INTERNAL_61f75dc7_7_base_cu_297024296thrust12placeholders3_10E; deviceName = _ZN37_INTERNAL_61f75dc7_7_base_cu_297024296thrust12placeholders3_10E
GPGPU-Sim PTX: __cudaRegisterVar: Registering const memory space of 1 bytes
GPGPU-Sim PTX registering global _ZN37_INTERNAL_61f75dc7_7_base_cu_297024296thrust12placeholders3_10E hostVar to name mapping
PageRank by Xuhao Chen
Reading (.mtx) input file ../CudaBenchmarks/gardenia/datasets/web-Google.mtx
Removing redundent edges... 0 redundent edges are removed
|V| 916428 |E| 5105039
This graph maintains both incomming and outgoing edge-list
Launching CUDA PR solver (3580 CTAs, 256 threads/CTA) ...
GPGPU-Sim PTX: Setting up arguments for 4 bytes starting at 0x7ffe693f15ac..
GPGPU-Sim PTX: Setting up arguments for 8 bytes starting at 0x7ffe693f15a0..
GPGPU-Sim PTX: Setting up arguments for 8 bytes starting at 0x7ffe693f1598..
GPGPU-Sim PTX: Setting up arguments for 8 bytes starting at 0x7ffe693f1590..

GPGPU-Sim PTX: cudaLaunch for 0x0x56462fa8f4df (mode=performance simulation) on stream 0
GPGPU-Sim PTX: finding reconvergence points for '_Z7contribiPfPiS_'...
GPGPU-Sim PTX: Finding dominators for '_Z7contribiPfPiS_'...
GPGPU-Sim PTX: Finding immediate dominators for '_Z7contribiPfPiS_'...
GPGPU-Sim PTX: Finding postdominators for '_Z7contribiPfPiS_'...
GPGPU-Sim PTX: Finding immediate postdominators for '_Z7contribiPfPiS_'...
GPGPU-Sim PTX: pre-decoding instructions for '_Z7contribiPfPiS_'...
GPGPU-Sim PTX: reconvergence points for _Z7contribiPfPiS_...
GPGPU-Sim PTX:  1 (potential) branch divergence @  PC=0x048 (pr_base.1.sm_75.ptx:50) @%p1 bra $L__BB0_2;

GPGPU-Sim PTX:    immediate post dominator      @  PC=0x0b0 (pr_base.1.sm_75.ptx:66) ret;

GPGPU-Sim PTX: ... end of reconvergence points for _Z7contribiPfPiS_
GPGPU-Sim PTX: ... done pre-decoding instructions for '_Z7contribiPfPiS_'.
GPGPU-Sim PTX: pushing kernel '_Z7contribiPfPiS_' to stream 0, gridDim= (3580,1,1) blockDim = (256,1,1) 
GPGPU-Sim uArch: Shader 0 bind to kernel 1 '_Z7contribiPfPiS_'
GPGPU-Sim uArch: CTA/core = 4, limited by: threads
GPGPU-Sim: Reconfigure L1 cache to 64KB
GPGPU-Sim uArch: Shader 1 bind to kernel 1 '_Z7contribiPfPiS_'
GPGPU-Sim uArch: Shader 2 bind to kernel 1 '_Z7contribiPfPiS_'
GPGPU-Sim uArch: Shader 3 bind to kernel 1 '_Z7contribiPfPiS_'
GPGPU-Sim uArch: Shader 4 bind to kernel 1 '_Z7contribiPfPiS_'
GPGPU-Sim uArch: Shader 5 bind to kernel 1 '_Z7contribiPfPiS_'
GPGPU-Sim uArch: Shader 6 bind to kernel 1 '_Z7contribiPfPiS_'
GPGPU-Sim uArch: Shader 7 bind to kernel 1 '_Z7contribiPfPiS_'
GPGPU-Sim uArch: Shader 8 bind to kernel 1 '_Z7contribiPfPiS_'
GPGPU-Sim uArch: Shader 9 bind to kernel 1 '_Z7contribiPfPiS_'
GPGPU-Sim uArch: Shader 10 bind to kernel 1 '_Z7contribiPfPiS_'
GPGPU-Sim uArch: Shader 11 bind to kernel 1 '_Z7contribiPfPiS_'
GPGPU-Sim uArch: Shader 12 bind to kernel 1 '_Z7contribiPfPiS_'
GPGPU-Sim uArch: Shader 13 bind to kernel 1 '_Z7contribiPfPiS_'
GPGPU-Sim uArch: Shader 14 bind to kernel 1 '_Z7contribiPfPiS_'
GPGPU-Sim uArch: Shader 15 bind to kernel 1 '_Z7contribiPfPiS_'
GPGPU-Sim uArch: Shader 16 bind to kernel 1 '_Z7contribiPfPiS_'
GPGPU-Sim uArch: Shader 17 bind to kernel 1 '_Z7contribiPfPiS_'
GPGPU-Sim uArch: Shader 18 bind to kernel 1 '_Z7contribiPfPiS_'
GPGPU-Sim uArch: Shader 19 bind to kernel 1 '_Z7contribiPfPiS_'
GPGPU-Sim uArch: Shader 20 bind to kernel 1 '_Z7contribiPfPiS_'
GPGPU-Sim uArch: Shader 21 bind to kernel 1 '_Z7contribiPfPiS_'
GPGPU-Sim uArch: Shader 22 bind to kernel 1 '_Z7contribiPfPiS_'
GPGPU-Sim uArch: Shader 23 bind to kernel 1 '_Z7contribiPfPiS_'
GPGPU-Sim uArch: Shader 24 bind to kernel 1 '_Z7contribiPfPiS_'
GPGPU-Sim uArch: Shader 25 bind to kernel 1 '_Z7contribiPfPiS_'
GPGPU-Sim uArch: Shader 26 bind to kernel 1 '_Z7contribiPfPiS_'
GPGPU-Sim uArch: Shader 27 bind to kernel 1 '_Z7contribiPfPiS_'
GPGPU-Sim uArch: Shader 28 bind to kernel 1 '_Z7contribiPfPiS_'
GPGPU-Sim uArch: Shader 29 bind to kernel 1 '_Z7contribiPfPiS_'
Destroy streams for kernel 1: size 0
kernel_name = _Z7contribiPfPiS_ 
kernel_launch_uid = 1 
gpu_sim_cycle = 52614
gpu_sim_insn = 20161988
gpu_ipc =     383.2057
gpu_tot_sim_cycle = 52614
gpu_tot_sim_insn = 20161988
gpu_tot_ipc =     383.2057
gpu_tot_issued_cta = 3580
gpu_occupancy = 90.9863% 
gpu_tot_occupancy = 90.9863% 
max_total_param_size = 0
gpu_stall_dramfull = 0
gpu_stall_icnt2sh    = 0
partiton_level_parallism =       6.5318
partiton_level_parallism_total  =       6.5318
partiton_level_parallism_util =       7.3205
partiton_level_parallism_util_total  =       7.3205
L2_BW  =     285.3073 GB/Sec
L2_BW_total  =     285.3073 GB/Sec
gpu_total_sim_rate=39688

========= Core cache stats =========
L1I_cache:
	L1I_total_cache_accesses = 0
	L1I_total_cache_misses = 0
	L1I_total_cache_pending_hits = 0
	L1I_total_cache_reservation_fails = 0
L1D_cache:
	L1D_cache_core[0]: Access = 11616, Miss = 11616, Miss_rate = 1.000, Pending_hits = 0, Reservation_fails = 3281
	L1D_cache_core[1]: Access = 11520, Miss = 11520, Miss_rate = 1.000, Pending_hits = 0, Reservation_fails = 3300
	L1D_cache_core[2]: Access = 11520, Miss = 11520, Miss_rate = 1.000, Pending_hits = 0, Reservation_fails = 3550
	L1D_cache_core[3]: Access = 11616, Miss = 11616, Miss_rate = 1.000, Pending_hits = 0, Reservation_fails = 3410
	L1D_cache_core[4]: Access = 11520, Miss = 11520, Miss_rate = 1.000, Pending_hits = 0, Reservation_fails = 3328
	L1D_cache_core[5]: Access = 11520, Miss = 11520, Miss_rate = 1.000, Pending_hits = 0, Reservation_fails = 3150
	L1D_cache_core[6]: Access = 11232, Miss = 11232, Miss_rate = 1.000, Pending_hits = 0, Reservation_fails = 3431
	L1D_cache_core[7]: Access = 11520, Miss = 11520, Miss_rate = 1.000, Pending_hits = 0, Reservation_fails = 3272
	L1D_cache_core[8]: Access = 11232, Miss = 11232, Miss_rate = 1.000, Pending_hits = 0, Reservation_fails = 3328
	L1D_cache_core[9]: Access = 10944, Miss = 10944, Miss_rate = 1.000, Pending_hits = 0, Reservation_fails = 3809
	L1D_cache_core[10]: Access = 11424, Miss = 11424, Miss_rate = 1.000, Pending_hits = 0, Reservation_fails = 3088
	L1D_cache_core[11]: Access = 11328, Miss = 11328, Miss_rate = 1.000, Pending_hits = 0, Reservation_fails = 3390
	L1D_cache_core[12]: Access = 11520, Miss = 11520, Miss_rate = 1.000, Pending_hits = 0, Reservation_fails = 3238
	L1D_cache_core[13]: Access = 11328, Miss = 11328, Miss_rate = 1.000, Pending_hits = 0, Reservation_fails = 3260
	L1D_cache_core[14]: Access = 11520, Miss = 11520, Miss_rate = 1.000, Pending_hits = 0, Reservation_fails = 3240
	L1D_cache_core[15]: Access = 11598, Miss = 11598, Miss_rate = 1.000, Pending_hits = 0, Reservation_fails = 3254
	L1D_cache_core[16]: Access = 11520, Miss = 11520, Miss_rate = 1.000, Pending_hits = 0, Reservation_fails = 3381
	L1D_cache_core[17]: Access = 11520, Miss = 11520, Miss_rate = 1.000, Pending_hits = 0, Reservation_fails = 2938
	L1D_cache_core[18]: Access = 11520, Miss = 11520, Miss_rate = 1.000, Pending_hits = 0, Reservation_fails = 3215
	L1D_cache_core[19]: Access = 11616, Miss = 11616, Miss_rate = 1.000, Pending_hits = 0, Reservation_fails = 3121
	L1D_cache_core[20]: Access = 11520, Miss = 11520, Miss_rate = 1.000, Pending_hits = 0, Reservation_fails = 3051
	L1D_cache_core[21]: Access = 11616, Miss = 11616, Miss_rate = 1.000, Pending_hits = 0, Reservation_fails = 2944
	L1D_cache_core[22]: Access = 11520, Miss = 11520, Miss_rate = 1.000, Pending_hits = 0, Reservation_fails = 2867
	L1D_cache_core[23]: Access = 11520, Miss = 11520, Miss_rate = 1.000, Pending_hits = 0, Reservation_fails = 3669
	L1D_cache_core[24]: Access = 11424, Miss = 11424, Miss_rate = 1.000, Pending_hits = 0, Reservation_fails = 3338
	L1D_cache_core[25]: Access = 11136, Miss = 11136, Miss_rate = 1.000, Pending_hits = 0, Reservation_fails = 3828
	L1D_cache_core[26]: Access = 11520, Miss = 11520, Miss_rate = 1.000, Pending_hits = 0, Reservation_fails = 3167
	L1D_cache_core[27]: Access = 11616, Miss = 11616, Miss_rate = 1.000, Pending_hits = 0, Reservation_fails = 3328
	L1D_cache_core[28]: Access = 11424, Miss = 11424, Miss_rate = 1.000, Pending_hits = 0, Reservation_fails = 3377
	L1D_cache_core[29]: Access = 11232, Miss = 11232, Miss_rate = 1.000, Pending_hits = 0, Reservation_fails = 3081
	L1D_total_cache_accesses = 343662
	L1D_total_cache_misses = 343662
	L1D_total_cache_miss_rate = 1.0000
	L1D_total_cache_pending_hits = 0
	L1D_total_cache_reservation_fails = 98634
	L1D_cache_data_port_util = 0.000
	L1D_cache_fill_port_util = 0.161
L1C_cache:
	L1C_total_cache_accesses = 0
	L1C_total_cache_misses = 0
	L1C_total_cache_pending_hits = 0
	L1C_total_cache_reservation_fails = 0
L1T_cache:
	L1T_total_cache_accesses = 0
	L1T_total_cache_misses = 0
	L1T_total_cache_pending_hits = 0
	L1T_total_cache_reservation_fails = 0

Total_core_cache_stats:
	Total_core_cache_stats_breakdown[GLOBAL_ACC_R][HIT] = 0
	Total_core_cache_stats_breakdown[GLOBAL_ACC_R][HIT_RESERVED] = 0
	Total_core_cache_stats_breakdown[GLOBAL_ACC_R][MISS] = 57278
	Total_core_cache_stats_breakdown[GLOBAL_ACC_R][RESERVATION_FAIL] = 97249
	Total_core_cache_stats_breakdown[GLOBAL_ACC_R][SECTOR_MISS] = 171830
	Total_core_cache_stats_breakdown[GLOBAL_ACC_R][MSHR_HIT] = 0
	Total_core_cache_stats_breakdown[LOCAL_ACC_R][HIT] = 0
	Total_core_cache_stats_breakdown[LOCAL_ACC_R][HIT_RESERVED] = 0
	Total_core_cache_stats_breakdown[LOCAL_ACC_R][MISS] = 0
	Total_core_cache_stats_breakdown[LOCAL_ACC_R][RESERVATION_FAIL] = 0
	Total_core_cache_stats_breakdown[LOCAL_ACC_R][SECTOR_MISS] = 0
	Total_core_cache_stats_breakdown[LOCAL_ACC_R][MSHR_HIT] = 0
	Total_core_cache_stats_breakdown[CONST_ACC_R][HIT] = 0
	Total_core_cache_stats_breakdown[CONST_ACC_R][HIT_RESERVED] = 0
	Total_core_cache_stats_breakdown[CONST_ACC_R][MISS] = 0
	Total_core_cache_stats_breakdown[CONST_ACC_R][RESERVATION_FAIL] = 0
	Total_core_cache_stats_breakdown[CONST_ACC_R][SECTOR_MISS] = 0
	Total_core_cache_stats_breakdown[CONST_ACC_R][MSHR_HIT] = 0
	Total_core_cache_stats_breakdown[TEXTURE_ACC_R][HIT] = 0
	Total_core_cache_stats_breakdown[TEXTURE_ACC_R][HIT_RESERVED] = 0
	Total_core_cache_stats_breakdown[TEXTURE_ACC_R][MISS] = 0
	Total_core_cache_stats_breakdown[TEXTURE_ACC_R][RESERVATION_FAIL] = 0
	Total_core_cache_stats_breakdown[TEXTURE_ACC_R][SECTOR_MISS] = 0
	Total_core_cache_stats_breakdown[TEXTURE_ACC_R][MSHR_HIT] = 0
	Total_core_cache_stats_breakdown[GLOBAL_ACC_W][HIT] = 0
	Total_core_cache_stats_breakdown[GLOBAL_ACC_W][HIT_RESERVED] = 0
	Total_core_cache_stats_breakdown[GLOBAL_ACC_W][MISS] = 28639
	Total_core_cache_stats_breakdown[GLOBAL_ACC_W][RESERVATION_FAIL] = 1385
	Total_core_cache_stats_breakdown[GLOBAL_ACC_W][SECTOR_MISS] = 85915
	Total_core_cache_stats_breakdown[GLOBAL_ACC_W][MSHR_HIT] = 0
	Total_core_cache_stats_breakdown[LOCAL_ACC_W][HIT] = 0
	Total_core_cache_stats_breakdown[LOCAL_ACC_W][HIT_RESERVED] = 0
	Total_core_cache_stats_breakdown[LOCAL_ACC_W][MISS] = 0
	Total_core_cache_stats_breakdown[LOCAL_ACC_W][RESERVATION_FAIL] = 0
	Total_core_cache_stats_breakdown[LOCAL_ACC_W][SECTOR_MISS] = 0
	Total_core_cache_stats_breakdown[LOCAL_ACC_W][MSHR_HIT] = 0
	Total_core_cache_stats_breakdown[L1_WRBK_ACC][HIT] = 0
	Total_core_cache_stats_breakdown[L1_WRBK_ACC][HIT_RESERVED] = 0
	Total_core_cache_stats_breakdown[L1_WRBK_ACC][MISS] = 0
	Total_core_cache_stats_breakdown[L1_WRBK_ACC][RESERVATION_FAIL] = 0
	Total_core_cache_stats_breakdown[L1_WRBK_ACC][SECTOR_MISS] = 0
	Total_core_cache_stats_breakdown[L1_WRBK_ACC][MSHR_HIT] = 0
	Total_core_cache_stats_breakdown[L2_WRBK_ACC][HIT] = 0
	Total_core_cache_stats_breakdown[L2_WRBK_ACC][HIT_RESERVED] = 0
	Total_core_cache_stats_breakdown[L2_WRBK_ACC][MISS] = 0
	Total_core_cache_stats_breakdown[L2_WRBK_ACC][RESERVATION_FAIL] = 0
	Total_core_cache_stats_breakdown[L2_WRBK_ACC][SECTOR_MISS] = 0
	Total_core_cache_stats_breakdown[L2_WRBK_ACC][MSHR_HIT] = 0
	Total_core_cache_stats_breakdown[INST_ACC_R][HIT] = 0
	Total_core_cache_stats_breakdown[INST_ACC_R][HIT_RESERVED] = 0
	Total_core_cache_stats_breakdown[INST_ACC_R][MISS] = 0
	Total_core_cache_stats_breakdown[INST_ACC_R][RESERVATION_FAIL] = 0
	Total_core_cache_stats_breakdown[INST_ACC_R][SECTOR_MISS] = 0
	Total_core_cache_stats_breakdown[INST_ACC_R][MSHR_HIT] = 0
	Total_core_cache_stats_breakdown[L1_WR_ALLOC_R][HIT] = 0
	Total_core_cache_stats_breakdown[L1_WR_ALLOC_R][HIT_RESERVED] = 0
	Total_core_cache_stats_breakdown[L1_WR_ALLOC_R][MISS] = 0
	Total_core_cache_stats_breakdown[L1_WR_ALLOC_R][RESERVATION_FAIL] = 0
	Total_core_cache_stats_breakdown[L1_WR_ALLOC_R][SECTOR_MISS] = 0
	Total_core_cache_stats_breakdown[L1_WR_ALLOC_R][MSHR_HIT] = 0
	Total_core_cache_stats_breakdown[L2_WR_ALLOC_R][HIT] = 0
	Total_core_cache_stats_breakdown[L2_WR_ALLOC_R][HIT_RESERVED] = 0
	Total_core_cache_stats_breakdown[L2_WR_ALLOC_R][MISS] = 0
	Total_core_cache_stats_breakdown[L2_WR_ALLOC_R][RESERVATION_FAIL] = 0
	Total_core_cache_stats_breakdown[L2_WR_ALLOC_R][SECTOR_MISS] = 0
	Total_core_cache_stats_breakdown[L2_WR_ALLOC_R][MSHR_HIT] = 0
	Total_core_cache_stats_breakdown[GLOBAL_ACC_R][TOTAL_ACCESS] = 229108
	Total_core_cache_stats_breakdown[GLOBAL_ACC_W][TOTAL_ACCESS] = 114554

Total_core_cache_fail_stats:
	Total_core_cache_fail_stats_breakdown[GLOBAL_ACC_R][MISS_QUEUE_FULL] = 97249
	Total_core_cache_fail_stats_breakdown[GLOBAL_ACC_W][MISS_QUEUE_FULL] = 1385
ctas_completed 3580, Shader 0 warp_id issue ditsribution:
warp_id:
0, 1, 2, 3, 4, 5, 6, 7, 8, 9, 10, 11, 12, 13, 14, 15, 16, 17, 18, 19, 20, 21, 22, 23, 24, 25, 26, 27, 28, 29, 30, 31, 
distro:
690, 690, 690, 690, 690, 690, 690, 690, 690, 690, 690, 690, 690, 690, 690, 690, 690, 690, 690, 690, 690, 690, 690, 690, 713, 713, 713, 713, 713, 713, 713, 713, 
gpgpu_n_tot_thrd_icount = 21078656
gpgpu_n_tot_w_icount = 658708
gpgpu_n_stall_shd_mem = 0
gpgpu_n_mem_read_local = 0
gpgpu_n_mem_write_local = 0
gpgpu_n_mem_read_global = 229108
gpgpu_n_mem_write_global = 114554
gpgpu_n_mem_texture = 0
gpgpu_n_mem_const = 0
gpgpu_n_load_insn  = 1832856
gpgpu_n_store_insn = 916428
gpgpu_n_shmem_insn = 0
gpgpu_n_sstarr_insn = 0
gpgpu_n_tex_insn = 0
gpgpu_n_const_mem_insn = 0
gpgpu_n_param_mem_insn = 3665920
gpgpu_n_shmem_bkconflict = 0
gpgpu_n_cache_bkconflict = 0
gpgpu_n_intrawarp_mshr_merge = 0
gpgpu_n_cmem_portconflict = 0
gpgpu_stall_shd_mem[c_mem][resource_stall] = 0
gpgpu_stall_shd_mem[s_mem][bk_conf] = 0
gpgpu_stall_shd_mem[gl_mem][resource_stall] = 0
gpgpu_stall_shd_mem[gl_mem][coal_stall] = 0
gpgpu_stall_shd_mem[gl_mem][data_port_stall] = 0
gpu_reg_bank_conflict_stalls = 0
Warp Occupancy Distribution:
Stall:292953	W0_Idle:90467	W0_Scoreboard:4642420	W1:0	W2:0	W3:0	W4:0	W5:0	W6:0	W7:0	W8:0	W9:0	W10:0	W11:0	W12:12	W13:0	W14:0	W15:0	W16:0	W17:0	W18:0	W19:0	W20:0	W21:0	W22:0	W23:0	W24:0	W25:0	W26:0	W27:0	W28:0	W29:0	W30:0	W31:0	W32:658696
single_issue_nums: WS0:164680	WS1:164680	WS2:164680	WS3:164668	
dual_issue_nums: WS0:0	WS1:0	WS2:0	WS3:0	
traffic_breakdown_coretomem[GLOBAL_ACC_R] = 1832864 {8:229108,}
traffic_breakdown_coretomem[GLOBAL_ACC_W] = 4582160 {40:114554,}
traffic_breakdown_memtocore[GLOBAL_ACC_R] = 9164320 {40:229108,}
traffic_breakdown_memtocore[GLOBAL_ACC_W] = 916432 {8:114554,}
maxmflatency = 1410 
max_icnt2mem_latency = 404 
maxmrqlatency = 863 
max_icnt2sh_latency = 127 
averagemflatency = 415 
avg_icnt2mem_latency = 48 
avg_mrq_latency = 94 
avg_icnt2sh_latency = 5 
mrq_lat_table:28646 	5956 	8404 	13087 	23361 	38838 	69677 	39842 	20349 	831 	0 	0 	0 	0 	0 	0 	0 	0 	0 	0 	0 	0 	0 	0 	0 	0 	0 	0 	0 	0 	0 	0 	
dq_lat_table:0 	0 	0 	0 	0 	0 	0 	0 	0 	0 	0 	0 	0 	0 	0 	0 	0 	0 	0 	0 	0 	0 	0 	0 	0 	0 	0 	0 	0 	0 	0 	0 	
mf_lat_table:0 	0 	0 	0 	0 	0 	0 	97713 	168733 	76471 	745 	0 	0 	0 	0 	0 	0 	0 	0 	0 	0 	0 	0 	0 	0 	0 	0 	0 	0 	0 	0 	0 	
icnt2mem_lat_table:0 	0 	0 	0 	0 	311055 	28923 	879 	2805 	0 	0 	0 	0 	0 	0 	0 	0 	0 	0 	0 	0 	0 	0 	0 	
icnt2sh_lat_table:0 	239380 	47247 	27771 	18134 	9849 	1281 	0 	0 	0 	0 	0 	0 	0 	0 	0 	0 	0 	0 	0 	0 	0 	0 	0 	
mf_lat_pw_table:0 	0 	0 	0 	0 	0 	0 	0 	43 	4 	0 	0 	0 	0 	0 	0 	0 	0 	0 	0 	0 	0 	0 	0 	0 	0 	0 	0 	0 	0 	0 	0 	
maximum concurrent accesses to same row:
dram[0]:        64        64        64        64        64        64        64        64        64        64        64        64        64        64        64        64 
dram[1]:        64        64        64        64        64        64        64        64        64        64        64        64        64        64        64        64 
dram[2]:        64        64        64        64        64        64        64        64        64        64        64        64        64        64        64        64 
dram[3]:        64        64        64        64        64        64        64        64        64        64        64        64        64        64        64        64 
dram[4]:        64        64        64        64        64        64        64        64        64        64        64        64        64        64        64        64 
dram[5]:        64        64        64        64        64        64        64        64        64        64        64        64        64        64        64        64 
dram[6]:        64        64        64        64        64        64        64        64        64        64        64        64        64        64        64        64 
dram[7]:        64        64        64        64        64        64        64        64        64        64        64        64        64        64        64        64 
dram[8]:        64        64        64        64        64        64        64        64        64        64        64        64        64        64        64        64 
dram[9]:        64        64        64        64        64        64        64        64        64        64        64        64        64        64        64        64 
dram[10]:        64        64        64        64        64        64        64        64        64        64        64        64        64        64        64        64 
dram[11]:        64        64        64        64        64        64        64        64        64        64        64        64        64        64        64        64 
maximum service time to same row:
dram[0]:      6339      6331      6394      6401      7643      7639      7790      7827      5647      5709      5653      5714      5801      5792      5810      5810 
dram[1]:      6339      6343      6461      6467      7633      7602      7790      7815      5738      5677      5744      5683      5804      5803      5831      5830 
dram[2]:      6366      6371      6453      6489      7638      7663      7816      7810      5812      5616      5768      5622      5799      5813      5807      5820 
dram[3]:      6329      6336      6401      6404      7629      7639      7826      7842      5555      5585      5561      5591      5810      5809      5817      5817 
dram[4]:      6339      6331      6399      6405      7629      7657      7796      7829      5646      5707      5652      5713      5800      5792      5808      5809 
dram[5]:      6340      6344      6450      6453      7650      7657      7810      7819      5737      5676      5744      5682      5802      5802      5829      5829 
dram[6]:      6366      6371      6442      6484      7629      7637      7762      7820      5812      5616      5768      5622      5799      5813      5807      5820 
dram[7]:      6329      6336      6373      6376      7638      7641      7812      7835      5555      5585      5561      5591      5810      5809      5817      5817 
dram[8]:      6343      6331      6393      6396      7589      7629      7804      7828      5646      5707      5652      5713      5800      5792      5808      5809 
dram[9]:      6339      6343      6462      6469      7613      7622      7780      7838      5737      5676      5744      5682      5802      5802      5829      5829 
dram[10]:      6366      6371      6448      6484      7615      7619      7798      7813      5812      5616      5768      5623      5799      5813      5808      5822 
dram[11]:      6329      6336      6373      6376      7601      7624      7788      7826      5555      5585      5562      5592      5810      5809      5819      5818 
average row accesses per activate:
dram[0]: 25.745098 29.155556 28.260870 28.260870 30.463415 29.761906 26.553192 26.553192 29.136364 29.813953 30.883720 30.181818 33.200001 29.511110 32.390244 31.619047 
dram[1]: 26.775511 26.775511 28.888889 27.083334 29.833334 29.785715 27.733334 29.023256 30.523809 29.136364 28.869566 32.390244 25.538462 28.869566 33.150002 33.099998 
dram[2]: 27.914894 27.914894 27.659575 28.888889 26.638298 28.454546 25.469387 25.469387 25.639999 26.708334 29.511110 27.666666 26.559999 27.666666 31.619047 30.181818 
dram[3]: 28.521740 28.521740 27.659575 26.000000 32.051281 31.250000 27.733334 27.733334 27.276596 29.136364 27.666666 26.559999 24.592592 24.145454 30.181818 29.511110 
dram[4]: 29.155556 32.000000 28.888889 28.260870 27.195652 28.431818 25.469387 24.000000 26.163265 29.136364 28.255320 28.255320 22.508474 25.056604 30.883720 30.159090 
dram[5]: 27.333334 27.333334 25.450981 27.000000 31.299999 31.250000 24.470589 26.000000 25.137255 23.740740 28.869566 27.666666 25.538462 25.056604 31.619047 30.181818 
dram[6]: 28.521740 29.155556 27.000000 28.799999 29.809525 27.195652 25.469387 24.959999 27.869566 29.136364 30.181818 30.883720 29.511110 31.619047 34.051281 34.051281 
dram[7]: 24.754717 24.754717 28.173914 27.574469 26.062500 28.386364 26.000000 24.959999 25.639999 25.639999 34.051281 34.947369 30.883720 30.883720 29.511110 29.511110 
dram[8]: 26.240000 26.775511 25.920000 28.173914 30.487804 26.574469 27.130434 26.000000 24.188679 24.653847 27.666666 29.511110 24.592592 26.039215 34.947369 34.947369 
dram[9]: 25.230770 25.725491 27.574469 31.609756 28.363636 25.020000 25.469387 28.363636 25.639999 23.740740 30.181818 29.511110 26.039215 27.666666 30.883720 34.947369 
dram[10]: 26.775511 26.240000 27.574469 28.173914 28.386364 27.130434 26.553192 24.959999 26.265306 27.382978 32.390244 30.181818 31.619047 33.200001 30.883720 29.511110 
dram[11]: 27.914894 28.521740 25.411764 26.448980 29.738094 27.152174 24.000000 24.470589 25.235294 27.978260 29.511110 29.511110 27.666666 31.619047 30.883720 31.619047 
average row locality = 248991/8872 = 28.064810
number of total memory accesses made:
dram[0]:         0         0         0         0         0         0         0         0         0         0         0         0         0         0         0         0 
dram[1]:         0         0         0         0         0         0         0         0         0         0         0         0         0         0         0         0 
dram[2]:         0         0         0         0         0         0         0         0         0         0         0         0         0         0         0         0 
dram[3]:         0         0         0         0         0         0         0         0         0         0         0         0         0         0         0         0 
dram[4]:         0         0         0         0         0         0         0         0         0         0         0         0         0         0         0         0 
dram[5]:         0         0         0         0         0         0         0         0         0         0         0         0         0         0         0         0 
dram[6]:         0         0         0         0         0         0         0         0         0         0         0         0         0         0         0         0 
dram[7]:         0         0         0         0         0         0         0         0         0         0         0         0         0         0         0         0 
dram[8]:         0         0         0         0         0         0         0         0         0         0         0         0         0         0         0         0 
dram[9]:         0         0         0         0         0         0         0         0         0         0         0         0         0         0         0         0 
dram[10]:         0         0         0         0         0         0         0         0         0         0         0         0         0         0         0         0 
dram[11]:         0         0         0         0         0         0         0         0         0         0         0         0         0         0         0         0 
total accesses: 0
min_bank_accesses = 0!
min_chip_accesses = 0!
number of total read accesses:
dram[0]:      1216      1216      1204      1204      1152      1152      1152      1152      1176      1176      1216      1216      1216      1216      1216      1216 
dram[1]:      1216      1216      1204      1204      1152      1152      1152      1152      1176      1176      1216      1216      1216      1216      1214      1212 
dram[2]:      1216      1216      1204      1204      1152      1152      1152      1152      1176      1176      1216      1216      1216      1216      1216      1216 
dram[3]:      1216      1216      1204      1204      1152      1152      1152      1152      1176      1176      1216      1216      1216      1216      1216      1216 
dram[4]:      1216      1216      1204      1204      1152      1152      1152      1152      1176      1176      1216      1216      1216      1216      1216      1216 
dram[5]:      1216      1216      1202      1200      1152      1152      1152      1152      1176      1176      1216      1216      1216      1216      1216      1216 
dram[6]:      1216      1216      1200      1200      1152      1152      1152      1152      1176      1176      1216      1216      1216      1216      1216      1216 
dram[7]:      1216      1216      1200      1200      1152      1152      1152      1152      1176      1176      1216      1216      1216      1216      1216      1216 
dram[8]:      1216      1216      1200      1200      1152      1152      1152      1152      1176      1176      1216      1216      1216      1216      1216      1216 
dram[9]:      1216      1216      1200      1200      1152      1152      1152      1152      1176      1176      1216      1216      1216      1216      1216      1216 
dram[10]:      1216      1216      1200      1200      1152      1152      1152      1152      1180      1180      1216      1216      1216      1216      1216      1216 
dram[11]:      1216      1216      1200      1200      1152      1152      1152      1152      1180      1180      1216      1216      1216      1216      1216      1216 
total dram reads = 229108
bank skew: 1216/1152 = 1.06
chip skew: 19096/19088 = 1.00
number of total write accesses:
dram[0]:       388       384       384       384       388       392       384       384       424       424       448       448       448       448       448       448 
dram[1]:       384       384       384       384       404       396       384       384       424       424       448       448       448       448       448       448 
dram[2]:       384       384       384       384       400       400       384       384       424       424       448       448       448       448       448       448 
dram[3]:       384       384       384       384       392       392       384       384       424       424       448       448       448       448       448       448 
dram[4]:       384       384       384       384       396       396       384       384       424       424       448       448       448       448       448       444 
dram[5]:       384       384       384       384       400       392       384       384       424       424       448       448       448       448       448       448 
dram[6]:       384       384       384       384       400       396       384       384       424       424       448       448       448       448       448       448 
dram[7]:       384       384       384       384       396       388       384       384       424       424       448       448       448       448       448       448 
dram[8]:       384       384       384       384       392       388       384       384       424       424       448       448       448       448       448       448 
dram[9]:       384       384       384       384       384       396       384       384       424       424       448       448       448       448       448       448 
dram[10]:       384       384       384       384       392       384       384       384       428       428       448       448       448       448       448       448 
dram[11]:       384       384       384       384       388       388       384       384       428       428       448       448       448       448       448       448 
total dram writes = 79536
bank skew: 448/384 = 1.17
chip skew: 6640/6620 = 1.00
average mf latency per bank:
dram[0]:        452       463       451       458       453       474       469       471       460       469       462       477       476       486       465       475
dram[1]:        464       483       446       468       444       456       466       463       453       459       470       475       496       491       464       465
dram[2]:        452       461       453       450       452       464       434       442       444       445       461       456       466       466       443       453
dram[3]:        457       455       453       451       445       452       443       454       442       463       449       464       464       466       464       467
dram[4]:        456       465       443       451       444       456       444       451       440       450       453       455       464       465       449       453
dram[5]:        453       456       448       452       445       466       465       461       459       463       468       476       482       483       445       470
dram[6]:        468       475       461       467       469       479       459       471       462       455       468       466       476       493       460       465
dram[7]:        449       469       454       467       450       463       444       461       443       448       448       454       477       485       440       459
dram[8]:        466       472       464       464       465       475       454       464       462       466       485       476       472       478       458       458
dram[9]:        447       459       465       450       443       449       459       459       457       468       457       459       478       481       452       452
dram[10]:        449       462       457       457       462       474       461       469       447       448       467       483       481       488       443       456
dram[11]:        465       471       462       465       465       467       458       464       459       458       468       471       480       491       450       471
maximum mf latency per bank:
dram[0]:        974       918       976       959      1045      1036       863       883       912       834      1309      1304       914       959      1101      1083
dram[1]:       1070      1055       808      1395       951       962       854       846      1282      1009      1245      1256      1299       999      1135      1005
dram[2]:        823       818       923       875      1169      1152       721       722      1134       787      1090      1097       967       972       986      1022
dram[3]:        956       910       943       942       929      1061       810       844       997      1225      1105      1336      1025       909       974       983
dram[4]:        963       944       959       969       999      1006       860       819      1194      1197      1154      1154       915       953      1001      1057
dram[5]:        922      1044      1047       878       898       988       878       968      1162      1167      1328      1326      1018      1043       970      1084
dram[6]:       1032      1123      1002       993       982       974      1038      1046      1018      1109      1373      1379      1410      1004      1086      1073
dram[7]:       1097      1076       902      1250      1069      1088       894       900      1016      1016      1257      1260       952      1202       917       982
dram[8]:       1016       952      1192      1139       930       915       963       953       882       871      1334      1231       966       958      1058      1078
dram[9]:        924       946       923       874       964       981       898       875       861       856      1313      1316      1013      1106      1037      1051
dram[10]:       1164      1000      1012      1048      1004       996       809       815       838       835      1179      1178       971       967       950       950
dram[11]:       1073      1089       975      1035      1092      1075       902       940      1210      1010      1251      1256       910      1102       969      1171

Number of Memory Banks Accessed per Memory Operation per Warp (from 0):
0	0	0	0	0	0	0	0	0	0	0	0	0	0	0	0	0	0	0	0	0	0	0	0	0	0	0	0	0	0	0	0	0	0	0	0	0	0	0	0	0	0	0	0	0	0	0	0	0	0	0	0	0	0	0	0	0	0	0	0	0	0	0	0	0	0	0	0	0	0	0	0	0	0	0	0	0	0	0	0	0	0	0	0	0	0	0	0	0	0	0	0	0	0	0	0	0	0	0	0	0	0	0	0	0	0	0	0	0	0	0	0	0	0	0	0	0	0	0	0	0	0	0	0	0	0	0	0	0	0	0	0	0	0	0	0	0	0	0	0	0	0	0	0	0	0	0	0	0	0	0	0	0	0	0	0	0	0	0	0	0	0	0	0	0	0	0	0	0	0	0	0	0	0	0	0	0	0	0	0	0	0	0	0	0	0	0	0	0	0	0	0	
Average # of Memory Banks Accessed per Memory Operation per Warp=-nan

position of mrq chosen
0	0	0	0	0	0	0	0	0	0	0	0	0	0	0	0	0	0	0	0	0	0	0	0	0	0	0	0	0	0	0	0	0	0	0	0	0	0	0	0	0	0	0	0	0	0	0	0	0	0	0	0	0	0	0	0	0	0	0	0	0	0	0	0	

average position of mrq chosen = -nan
Memory Partition 0: 
Cache L2_bank_000:
MSHR contents

Cache L2_bank_001:
MSHR contents

In Dram Latency Queue (total = 5): 
Ready @ 52622 -   mf: uid=707228, sid4294967295:w4294967295, part=0, addr=0xc2778c80, store, size=128, L2_WRBK  status = IN_PARTITION_DRAM_LATENCY_QUEUE (52526), 
Ready @ 52626 -   mf: uid=707233, sid4294967295:w4294967295, part=0, addr=0xc2779800, store, size=128, L2_WRBK  status = IN_PARTITION_DRAM_LATENCY_QUEUE (52530), 
Ready @ 52655 -   mf: uid=707240, sid4294967295:w4294967295, part=0, addr=0xc2778c00, store, size=128, L2_WRBK  status = IN_PARTITION_DRAM_LATENCY_QUEUE (52559), 
Ready @ 52667 -   mf: uid=707242, sid4294967295:w4294967295, part=0, addr=0xc2778080, store, size=128, L2_WRBK  status = IN_PARTITION_DRAM_LATENCY_QUEUE (52571), 
Ready @ 52675 -   mf: uid=707243, sid4294967295:w4294967295, part=0, addr=0xc2778000, store, size=128, L2_WRBK  status = IN_PARTITION_DRAM_LATENCY_QUEUE (52579), 
DRAM[0]: 16 bks, busW=2 BL=16 CL=24, tRRD=12 tCCD=4, tRCD=24 tRAS=55 tRP=24 tRC=78
n_cmd=134925 n_nop=107867 n_act=707 n_pre=691 n_ref_event=0 n_req=20752 n_rd=19096 n_rd_L2_A=0 n_write=0 n_wr_bk=6624 bw_util=0.7625
n_activity=111870 dram_eff=0.9196
bk0: 1216a 105373i bk1: 1216a 104904i bk2: 1204a 103785i bk3: 1204a 102495i bk4: 1152a 105836i bk5: 1152a 103303i bk6: 1152a 106281i bk7: 1152a 104991i bk8: 1176a 106997i bk9: 1176a 106657i bk10: 1216a 104479i bk11: 1216a 102318i bk12: 1216a 101404i bk13: 1216a 99140i bk14: 1216a 101996i bk15: 1216a 101694i 

------------------------------------------------------------------------

Row_Buffer_Locality = 0.965931
Row_Buffer_Locality_read = 0.976697
Row_Buffer_Locality_write = 0.841787
Bank_Level_Parallism = 4.737030
Bank_Level_Parallism_Col = 1.000000
Bank_Level_Parallism_Ready = 2.105009
write_to_read_ratio_blp_rw_average = 0.000000
GrpLevelPara = 0.000000 

BW Util details:
bwutil = 0.762498 
total_CMD = 134925 
util_bw = 102880 
Wasted_Col = 6626 
Wasted_Row = 469 
Idle = 24950 

BW Util Bottlenecks: 
RCDc_limit = 1341 
RCDWRc_limit = 476 
WTRc_limit = 5709 
RTWc_limit = 10989 
CCDLc_limit = 5061 
rwq = 0 
CCDLc_limit_alone = 3584 
WTRc_limit_alone = 5445 
RTWc_limit_alone = 9776 

Commands details: 
total_CMD = 134925 
n_nop = 107867 
Read = 19096 
Write = 0 
L2_Alloc = 0 
L2_WB = 6624 
n_act = 707 
n_pre = 691 
n_ref = 0 
n_req = 20752 
total_req = 25720 

Dual Bus Interface Util: 
issued_total_row = 1398 
issued_total_col = 25720 
Row_Bus_Util =  0.010361 
CoL_Bus_Util = 0.190624 
Either_Row_CoL_Bus_Util = 0.200541 
Issued_on_Two_Bus_Simul_Util = 0.000445 
issued_two_Eff = 0.002217 
queue_avg = 37.313427 


dram_util_bins: 0 0 0 0 0 0 0 0 0 0
dram_eff_bins: 0 0 0 0 0 0 0 0 0 0
mrqq: max=64 avg=37.3134
Memory Partition 1: 
Cache L2_bank_002:
MSHR contents

Cache L2_bank_003:
MSHR contents

In Dram Latency Queue (total = 1): 
Ready @ 52651 -   mf: uid=707237, sid4294967295:w4294967295, part=1, addr=0xc2778d80, store, size=128, L2_WRBK  status = IN_PARTITION_DRAM_LATENCY_QUEUE (52555), 
DRAM[1]: 16 bks, busW=2 BL=16 CL=24, tRRD=12 tCCD=4, tRCD=24 tRAS=55 tRP=24 tRC=78
n_cmd=134925 n_nop=107847 n_act=714 n_pre=698 n_ref_event=0 n_req=20750 n_rd=19090 n_rd_L2_A=0 n_write=0 n_wr_bk=6638 bw_util=0.7627
n_activity=111983 dram_eff=0.919
bk0: 1216a 101266i bk1: 1216a 99367i bk2: 1204a 105320i bk3: 1204a 100810i bk4: 1152a 105003i bk5: 1152a 105042i bk6: 1152a 104750i bk7: 1152a 104915i bk8: 1176a 104521i bk9: 1176a 104762i bk10: 1216a 103730i bk11: 1216a 102260i bk12: 1216a 98645i bk13: 1216a 100432i bk14: 1214a 100343i bk15: 1212a 100585i 

------------------------------------------------------------------------

Row_Buffer_Locality = 0.965590
Row_Buffer_Locality_read = 0.976585
Row_Buffer_Locality_write = 0.839157
Bank_Level_Parallism = 4.912817
Bank_Level_Parallism_Col = 4.695646
Bank_Level_Parallism_Ready = 2.160218
write_to_read_ratio_blp_rw_average = 0.353908
GrpLevelPara = 3.272490 

BW Util details:
bwutil = 0.762735 
total_CMD = 134925 
util_bw = 102909 
Wasted_Col = 6784 
Wasted_Row = 403 
Idle = 24829 

BW Util Bottlenecks: 
RCDc_limit = 1280 
RCDWRc_limit = 406 
WTRc_limit = 6845 
RTWc_limit = 11060 
CCDLc_limit = 5385 
rwq = 0 
CCDLc_limit_alone = 3605 
WTRc_limit_alone = 6432 
RTWc_limit_alone = 9693 

Commands details: 
total_CMD = 134925 
n_nop = 107847 
Read = 19090 
Write = 0 
L2_Alloc = 0 
L2_WB = 6638 
n_act = 714 
n_pre = 698 
n_ref = 0 
n_req = 20750 
total_req = 25728 

Dual Bus Interface Util: 
issued_total_row = 1412 
issued_total_col = 25728 
Row_Bus_Util =  0.010465 
CoL_Bus_Util = 0.190684 
Either_Row_CoL_Bus_Util = 0.200689 
Issued_on_Two_Bus_Simul_Util = 0.000460 
issued_two_Eff = 0.002290 
queue_avg = 38.106377 


dram_util_bins: 0 0 0 0 0 0 0 0 0 0
dram_eff_bins: 0 0 0 0 0 0 0 0 0 0
mrqq: max=64 avg=38.1064
Memory Partition 2: 
Cache L2_bank_004:
MSHR contents

Cache L2_bank_005:
MSHR contents

In Dram Latency Queue (total = 3): 
Ready @ 52617 -   mf: uid=707223, sid4294967295:w4294967295, part=2, addr=0xc2778e00, store, size=128, L2_WRBK  status = IN_PARTITION_DRAM_LATENCY_QUEUE (52521), 
Ready @ 52622 -   mf: uid=707229, sid4294967295:w4294967295, part=2, addr=0xc277be80, store, size=128, L2_WRBK  status = IN_PARTITION_DRAM_LATENCY_QUEUE (52526), 
Ready @ 52637 -   mf: uid=707235, sid4294967295:w4294967295, part=2, addr=0xc2778e80, store, size=128, L2_WRBK  status = IN_PARTITION_DRAM_LATENCY_QUEUE (52541), 
DRAM[2]: 16 bks, busW=2 BL=16 CL=24, tRRD=12 tCCD=4, tRCD=24 tRAS=55 tRP=24 tRC=78
n_cmd=134925 n_nop=107764 n_act=750 n_pre=734 n_ref_event=0 n_req=20756 n_rd=19096 n_rd_L2_A=0 n_write=0 n_wr_bk=6640 bw_util=0.763
n_activity=112646 dram_eff=0.9139
bk0: 1216a 106167i bk1: 1216a 105616i bk2: 1204a 103070i bk3: 1204a 103349i bk4: 1152a 103022i bk5: 1152a 102467i bk6: 1152a 105513i bk7: 1152a 104203i bk8: 1176a 103664i bk9: 1176a 104472i bk10: 1216a 104033i bk11: 1216a 101782i bk12: 1216a 100059i bk13: 1216a 99083i bk14: 1216a 103498i bk15: 1216a 102383i 

------------------------------------------------------------------------

Row_Buffer_Locality = 0.963866
Row_Buffer_Locality_read = 0.975545
Row_Buffer_Locality_write = 0.829518
Bank_Level_Parallism = 4.785811
Bank_Level_Parallism_Col = 4.559363
Bank_Level_Parallism_Ready = 2.150806
write_to_read_ratio_blp_rw_average = 0.366668
GrpLevelPara = 3.257145 

BW Util details:
bwutil = 0.762972 
total_CMD = 134925 
util_bw = 102944 
Wasted_Col = 7536 
Wasted_Row = 299 
Idle = 24146 

BW Util Bottlenecks: 
RCDc_limit = 1204 
RCDWRc_limit = 371 
WTRc_limit = 6075 
RTWc_limit = 12152 
CCDLc_limit = 6258 
rwq = 0 
CCDLc_limit_alone = 4389 
WTRc_limit_alone = 5618 
RTWc_limit_alone = 10740 

Commands details: 
total_CMD = 134925 
n_nop = 107764 
Read = 19096 
Write = 0 
L2_Alloc = 0 
L2_WB = 6640 
n_act = 750 
n_pre = 734 
n_ref = 0 
n_req = 20756 
total_req = 25736 

Dual Bus Interface Util: 
issued_total_row = 1484 
issued_total_col = 25736 
Row_Bus_Util =  0.010999 
CoL_Bus_Util = 0.190743 
Either_Row_CoL_Bus_Util = 0.201304 
Issued_on_Two_Bus_Simul_Util = 0.000437 
issued_two_Eff = 0.002172 
queue_avg = 36.350616 


dram_util_bins: 0 0 0 0 0 0 0 0 0 0
dram_eff_bins: 0 0 0 0 0 0 0 0 0 0
mrqq: max=64 avg=36.3506
Memory Partition 3: 
Cache L2_bank_006:
MSHR contents

Cache L2_bank_007:
MSHR contents

In Dram Latency Queue (total = 0): 
DRAM[3]: 16 bks, busW=2 BL=16 CL=24, tRRD=12 tCCD=4, tRCD=24 tRAS=55 tRP=24 tRC=78
n_cmd=134925 n_nop=107794 n_act=745 n_pre=729 n_ref_event=0 n_req=20752 n_rd=19096 n_rd_L2_A=0 n_write=0 n_wr_bk=6624 bw_util=0.7625
n_activity=112956 dram_eff=0.9108
bk0: 1216a 106333i bk1: 1216a 105336i bk2: 1204a 105242i bk3: 1204a 104026i bk4: 1152a 104634i bk5: 1152a 103486i bk6: 1152a 106045i bk7: 1152a 105883i bk8: 1176a 106279i bk9: 1176a 104340i bk10: 1216a 100703i bk11: 1216a 101234i bk12: 1216a 101120i bk13: 1216a 100076i bk14: 1216a 99734i bk15: 1216a 99053i 

------------------------------------------------------------------------

Row_Buffer_Locality = 0.964100
Row_Buffer_Locality_read = 0.975649
Row_Buffer_Locality_write = 0.830918
Bank_Level_Parallism = 4.789346
Bank_Level_Parallism_Col = 4.572068
Bank_Level_Parallism_Ready = 2.139847
write_to_read_ratio_blp_rw_average = 0.354413
GrpLevelPara = 3.256594 

BW Util details:
bwutil = 0.762498 
total_CMD = 134925 
util_bw = 102880 
Wasted_Col = 7186 
Wasted_Row = 540 
Idle = 24319 

BW Util Bottlenecks: 
RCDc_limit = 1314 
RCDWRc_limit = 403 
WTRc_limit = 6644 
RTWc_limit = 11296 
CCDLc_limit = 5647 
rwq = 0 
CCDLc_limit_alone = 3968 
WTRc_limit_alone = 6149 
RTWc_limit_alone = 10112 

Commands details: 
total_CMD = 134925 
n_nop = 107794 
Read = 19096 
Write = 0 
L2_Alloc = 0 
L2_WB = 6624 
n_act = 745 
n_pre = 729 
n_ref = 0 
n_req = 20752 
total_req = 25720 

Dual Bus Interface Util: 
issued_total_row = 1474 
issued_total_col = 25720 
Row_Bus_Util =  0.010925 
CoL_Bus_Util = 0.190624 
Either_Row_CoL_Bus_Util = 0.201082 
Issued_on_Two_Bus_Simul_Util = 0.000467 
issued_two_Eff = 0.002322 
queue_avg = 36.554806 


dram_util_bins: 0 0 0 0 0 0 0 0 0 0
dram_eff_bins: 0 0 0 0 0 0 0 0 0 0
mrqq: max=64 avg=36.5548
Memory Partition 4: 
Cache L2_bank_008:
MSHR contents

Cache L2_bank_009:
MSHR contents

[...]
bk0: 18260a 11908095i bk1: 18307a 11914587i bk2: 17875a 11936616i bk3: 17948a 11939984i bk4: 18507a 11894830i bk5: 18276a 11920356i bk6: 17993a 11926248i bk7: 17910a 11940735i bk8: 19121a 11866767i bk9: 19176a 11869440i bk10: 19205a 11853960i bk11: 19254a 11861160i bk12: 19813a 11817000i bk13: 19708a 11831998i bk14: 18122a 11920517i bk15: 18017a 11937492i 

------------------------------------------------------------------------

Row_Buffer_Locality = 0.257729
Row_Buffer_Locality_read = 0.255893
Row_Buffer_Locality_write = 0.372376
Bank_Level_Parallism = 2.165511
Bank_Level_Parallism_Col = 1.475624
Bank_Level_Parallism_Ready = 1.154115
write_to_read_ratio_blp_rw_average = 0.030484
GrpLevelPara = 1.337971 

BW Util details:
bwutil = 0.099177 
total_CMD = 12767045 
util_bw = 1266192 
Wasted_Col = 3591813 
Wasted_Row = 1784439 
Idle = 6124601 

BW Util Bottlenecks: 
RCDc_limit = 4472523 
RCDWRc_limit = 27157 
WTRc_limit = 133568 
RTWc_limit = 94792 
CCDLc_limit = 156221 
rwq = 0 
CCDLc_limit_alone = 143616 
WTRc_limit_alone = 125663 
RTWc_limit_alone = 90092 

Commands details: 
total_CMD = 12767045 
n_nop = 12017325 
Read = 297492 
Write = 0 
L2_Alloc = 0 
L2_WB = 19056 
n_act = 224356 
n_pre = 224340 
n_ref = 0 
n_req = 302256 
total_req = 316548 

Dual Bus Interface Util: 
issued_total_row = 448696 
issued_total_col = 316548 
Row_Bus_Util =  0.035145 
CoL_Bus_Util = 0.024794 
Either_Row_CoL_Bus_Util = 0.058723 
Issued_on_Two_Bus_Simul_Util = 0.001216 
issued_two_Eff = 0.020706 
queue_avg = 0.790050 


dram_util_bins: 0 0 0 0 0 0 0 0 0 0
dram_eff_bins: 0 0 0 0 0 0 0 0 0 0
mrqq: max=64 avg=0.79005
Memory Partition 9: 
Cache L2_bank_018:
MSHR contents

Cache L2_bank_019:
MSHR contents

In Dram Latency Queue (total = 0): 
DRAM[9]: 16 bks, busW=2 BL=16 CL=24, tRRD=12 tCCD=4, tRCD=24 tRAS=55 tRP=24 tRC=78
n_cmd=12767045 n_nop=12026184 n_act=220883 n_pre=220867 n_ref_event=0 n_req=299651 n_rd=294888 n_rd_L2_A=0 n_write=0 n_wr_bk=19050 bw_util=0.09836
n_activity=7969838 dram_eff=0.1576
bk0: 18369a 11915643i bk1: 18336a 11922226i bk2: 17560a 11964811i bk3: 17759a 11953935i bk4: 18434a 11912774i bk5: 18225a 11932244i bk6: 17580a 11962309i bk7: 17961a 11945083i bk8: 18931a 11876535i bk9: 19087a 11872047i bk10: 18898a 11878038i bk11: 18891a 11876652i bk12: 19830a 11831904i bk13: 19551a 11840778i bk14: 17670a 11959857i bk15: 17806a 11954873i 

------------------------------------------------------------------------

Row_Buffer_Locality = 0.262866
Row_Buffer_Locality_read = 0.261065
Row_Buffer_Locality_write = 0.374344
Bank_Level_Parallism = 2.146031
Bank_Level_Parallism_Col = 1.471183
Bank_Level_Parallism_Ready = 1.156498
write_to_read_ratio_blp_rw_average = 0.030373
GrpLevelPara = 1.336882 

BW Util details:
bwutil = 0.098359 
total_CMD = 12767045 
util_bw = 1255752 
Wasted_Col = 3545825 
Wasted_Row = 1780313 
Idle = 6185155 

BW Util Bottlenecks: 
RCDc_limit = 4406143 
RCDWRc_limit = 27319 
WTRc_limit = 131511 
RTWc_limit = 89811 
CCDLc_limit = 153162 
rwq = 0 
CCDLc_limit_alone = 141243 
WTRc_limit_alone = 124168 
RTWc_limit_alone = 85235 

Commands details: 
total_CMD = 12767045 
n_nop = 12026184 
Read = 294888 
Write = 0 
L2_Alloc = 0 
L2_WB = 19050 
n_act = 220883 
n_pre = 220867 
n_ref = 0 
n_req = 299651 
total_req = 313938 

Dual Bus Interface Util: 
issued_total_row = 441750 
issued_total_col = 313938 
Row_Bus_Util =  0.034601 
CoL_Bus_Util = 0.024590 
Either_Row_CoL_Bus_Util = 0.058029 
Issued_on_Two_Bus_Simul_Util = 0.001161 
issued_two_Eff = 0.020013 
queue_avg = 0.741661 


dram_util_bins: 0 0 0 0 0 0 0 0 0 0
dram_eff_bins: 0 0 0 0 0 0 0 0 0 0
mrqq: max=64 avg=0.741661
Memory Partition 10: 
Cache L2_bank_020:
MSHR contents

Cache L2_bank_021:
MSHR contents

In Dram Latency Queue (total = 0): 
DRAM[10]: 16 bks, busW=2 BL=16 CL=24, tRRD=12 tCCD=4, tRCD=24 tRAS=55 tRP=24 tRC=78
n_cmd=12767045 n_nop=12014819 n_act=224694 n_pre=224678 n_ref_event=0 n_req=303885 n_rd=299122 n_rd_L2_A=0 n_write=0 n_wr_bk=19052 bw_util=0.09969
n_activity=8002557 dram_eff=0.159
bk0: 18418a 11914405i bk1: 18346a 11915693i bk2: 17900a 11935181i bk3: 17923a 11939534i bk4: 18607a 11910460i bk5: 18752a 11891286i bk6: 17831a 11943469i bk7: 17684a 11954414i bk8: 19415a 11858679i bk9: 19306a 11859587i bk10: 19401a 11848802i bk11: 19146a 11867325i bk12: 19874a 11816251i bk13: 19993a 11813674i bk14: 18285a 11919262i bk15: 18241a 11928508i 

------------------------------------------------------------------------

Row_Buffer_Locality = 0.260595
Row_Buffer_Locality_read = 0.258700
Row_Buffer_Locality_write = 0.379593
Bank_Level_Parallism = 2.172116
Bank_Level_Parallism_Col = 1.478125
Bank_Level_Parallism_Ready = 1.155280
write_to_read_ratio_blp_rw_average = 0.030132
GrpLevelPara = 1.340162 

BW Util details:
bwutil = 0.099686 
total_CMD = 12767045 
util_bw = 1272696 
Wasted_Col = 3585330 
Wasted_Row = 1775298 
Idle = 6133721 

BW Util Bottlenecks: 
RCDc_limit = 4473441 
RCDWRc_limit = 26897 
WTRc_limit = 132301 
RTWc_limit = 90810 
CCDLc_limit = 156872 
rwq = 0 
CCDLc_limit_alone = 144757 
WTRc_limit_alone = 124811 
RTWc_limit_alone = 86185 

Commands details: 
total_CMD = 12767045 
n_nop = 12014819 
Read = 299122 
Write = 0 
L2_Alloc = 0 
L2_WB = 19052 
n_act = 224694 
n_pre = 224678 
n_ref = 0 
n_req = 303885 
total_req = 318174 

Dual Bus Interface Util: 
issued_total_row = 449372 
issued_total_col = 318174 
Row_Bus_Util =  0.035198 
CoL_Bus_Util = 0.024922 
Either_Row_CoL_Bus_Util = 0.058919 
Issued_on_Two_Bus_Simul_Util = 0.001200 
issued_two_Eff = 0.020366 
queue_avg = 0.791106 


dram_util_bins: 0 0 0 0 0 0 0 0 0 0
dram_eff_bins: 0 0 0 0 0 0 0 0 0 0
mrqq: max=64 avg=0.791106
Memory Partition 11: 
Cache L2_bank_022:
MSHR contents

Cache L2_bank_023:
MSHR contents

In Dram Latency Queue (total = 0): 
DRAM[11]: 16 bks, busW=2 BL=16 CL=24, tRRD=12 tCCD=4, tRCD=24 tRAS=55 tRP=24 tRC=78
n_cmd=12767045 n_nop=12017997 n_act=223609 n_pre=223593 n_ref_event=0 n_req=302671 n_rd=297909 n_rd_L2_A=0 n_write=0 n_wr_bk=19048 bw_util=0.0993
n_activity=8001695 dram_eff=0.1584
bk0: 18579a 11904832i bk1: 18229a 11920266i bk2: 17749a 11947165i bk3: 18011a 11933842i bk4: 18622a 11899892i bk5: 18330a 11913475i bk6: 17725a 11949279i bk7: 17830a 11952740i bk8: 19190a 11868209i bk9: 19263a 11860013i bk10: 19049a 11868969i bk11: 19551a 11846730i bk12: 19688a 11826991i bk13: 19851a 11819947i bk14: 17892a 11935394i bk15: 18350a 11915061i 

------------------------------------------------------------------------

Row_Buffer_Locality = 0.261214
Row_Buffer_Locality_read = 0.259311
Row_Buffer_Locality_write = 0.380302
Bank_Level_Parallism = 2.169849
Bank_Level_Parallism_Col = 1.483196
Bank_Level_Parallism_Ready = 1.162016
write_to_read_ratio_blp_rw_average = 0.030652
GrpLevelPara = 1.341298 

BW Util details:
bwutil = 0.099305 
total_CMD = 12767045 
util_bw = 1267828 
Wasted_Col = 3574520 
Wasted_Row = 1777827 
Idle = 6146870 

BW Util Bottlenecks: 
RCDc_limit = 4454357 
RCDWRc_limit = 26732 
WTRc_limit = 133869 
RTWc_limit = 94511 
CCDLc_limit = 156562 
rwq = 0 
CCDLc_limit_alone = 144071 
WTRc_limit_alone = 126233 
RTWc_limit_alone = 89656 

Commands details: 
total_CMD = 12767045 
n_nop = 12017997 
Read = 297909 
Write = 0 
L2_Alloc = 0 
L2_WB = 19048 
n_act = 223609 
n_pre = 223593 
n_ref = 0 
n_req = 302671 
total_req = 316957 

Dual Bus Interface Util: 
issued_total_row = 447202 
issued_total_col = 316957 
Row_Bus_Util =  0.035028 
CoL_Bus_Util = 0.024826 
Either_Row_CoL_Bus_Util = 0.058670 
Issued_on_Two_Bus_Simul_Util = 0.001184 
issued_two_Eff = 0.020174 
queue_avg = 0.800669 


dram_util_bins: 0 0 0 0 0 0 0 0 0 0
dram_eff_bins: 0 0 0 0 0 0 0 0 0 0
mrqq: max=64 avg=0.800669

========= L2 cache stats =========
L2_cache_bank[0]: Access = 271274, Miss = 159104, Miss_rate = 0.587, Pending_hits = 603, Reservation_fails = 0
L2_cache_bank[1]: Access = 269976, Miss = 159182, Miss_rate = 0.590, Pending_hits = 396, Reservation_fails = 0
L2_cache_bank[2]: Access = 270573, Miss = 158640, Miss_rate = 0.586, Pending_hits = 399, Reservation_fails = 0
L2_cache_bank[3]: Access = 270642, Miss = 158350, Miss_rate = 0.585, Pending_hits = 312, Reservation_fails = 0
L2_cache_bank[4]: Access = 268901, Miss = 158044, Miss_rate = 0.588, Pending_hits = 384, Reservation_fails = 0
L2_cache_bank[5]: Access = 266649, Miss = 157348, Miss_rate = 0.590, Pending_hits = 382, Reservation_fails = 0
L2_cache_bank[6]: Access = 269267, Miss = 157583, Miss_rate = 0.585, Pending_hits = 376, Reservation_fails = 0
L2_cache_bank[7]: Access = 269310, Miss = 157883, Miss_rate = 0.586, Pending_hits = 368, Reservation_fails = 0
L2_cache_bank[8]: Access = 269334, Miss = 157461, Miss_rate = 0.585, Pending_hits = 597, Reservation_fails = 0
L2_cache_bank[9]: Access = 268293, Miss = 157464, Miss_rate = 0.587, Pending_hits = 382, Reservation_fails = 0
L2_cache_bank[10]: Access = 271057, Miss = 158868, Miss_rate = 0.586, Pending_hits = 346, Reservation_fails = 0
L2_cache_bank[11]: Access = 270714, Miss = 159091, Miss_rate = 0.588, Pending_hits = 370, Reservation_fails = 0
L2_cache_bank[12]: Access = 270324, Miss = 159195, Miss_rate = 0.589, Pending_hits = 347, Reservation_fails = 0
L2_cache_bank[13]: Access = 270691, Miss = 158642, Miss_rate = 0.586, Pending_hits = 345, Reservation_fails = 0
L2_cache_bank[14]: Access = 270711, Miss = 158594, Miss_rate = 0.586, Pending_hits = 361, Reservation_fails = 0
L2_cache_bank[15]: Access = 267043, Miss = 156941, Miss_rate = 0.588, Pending_hits = 372, Reservation_fails = 0
L2_cache_bank[16]: Access = 270453, Miss = 158444, Miss_rate = 0.586, Pending_hits = 560, Reservation_fails = 0
L2_cache_bank[17]: Access = 270616, Miss = 158144, Miss_rate = 0.584, Pending_hits = 346, Reservation_fails = 0
L2_cache_bank[18]: Access = 265783, Miss = 156818, Miss_rate = 0.590, Pending_hits = 371, Reservation_fails = 0
L2_cache_bank[19]: Access = 267173, Miss = 157160, Miss_rate = 0.588, Pending_hits = 328, Reservation_fails = 0
L2_cache_bank[20]: Access = 271903, Miss = 159279, Miss_rate = 0.586, Pending_hits = 414, Reservation_fails = 0
L2_cache_bank[21]: Access = 270198, Miss = 158939, Miss_rate = 0.588, Pending_hits = 331, Reservation_fails = 0
L2_cache_bank[22]: Access = 268631, Miss = 158042, Miss_rate = 0.588, Pending_hits = 380, Reservation_fails = 0
L2_cache_bank[23]: Access = 271276, Miss = 158963, Miss_rate = 0.586, Pending_hits = 402, Reservation_fails = 0
L2_total_cache_accesses = 6470792
L2_total_cache_misses = 3798179
L2_total_cache_miss_rate = 0.5870
L2_total_cache_pending_hits = 9472
L2_total_cache_reservation_fails = 0
L2_total_cache_breakdown:
	L2_cache_stats_breakdown[GLOBAL_ACC_R][HIT] = 2663141
	L2_cache_stats_breakdown[GLOBAL_ACC_R][HIT_RESERVED] = 9472
	L2_cache_stats_breakdown[GLOBAL_ACC_R][MISS] = 1353978
	L2_cache_stats_breakdown[GLOBAL_ACC_R][RESERVATION_FAIL] = 0
	L2_cache_stats_breakdown[GLOBAL_ACC_R][SECTOR_MISS] = 2215093
	L2_cache_stats_breakdown[GLOBAL_ACC_R][MSHR_HIT] = 9472
	L2_cache_stats_breakdown[LOCAL_ACC_R][HIT] = 0
	L2_cache_stats_breakdown[LOCAL_ACC_R][HIT_RESERVED] = 0
	L2_cache_stats_breakdown[LOCAL_ACC_R][MISS] = 0
	L2_cache_stats_breakdown[LOCAL_ACC_R][RESERVATION_FAIL] = 0
	L2_cache_stats_breakdown[LOCAL_ACC_R][SECTOR_MISS] = 0
	L2_cache_stats_breakdown[LOCAL_ACC_R][MSHR_HIT] = 0
	L2_cache_stats_breakdown[CONST_ACC_R][HIT] = 0
	L2_cache_stats_breakdown[CONST_ACC_R][HIT_RESERVED] = 0
	L2_cache_stats_breakdown[CONST_ACC_R][MISS] = 0
	L2_cache_stats_breakdown[CONST_ACC_R][RESERVATION_FAIL] = 0
	L2_cache_stats_breakdown[CONST_ACC_R][SECTOR_MISS] = 0
	L2_cache_stats_breakdown[CONST_ACC_R][MSHR_HIT] = 0
	L2_cache_stats_breakdown[TEXTURE_ACC_R][HIT] = 0
	L2_cache_stats_breakdown[TEXTURE_ACC_R][HIT_RESERVED] = 0
	L2_cache_stats_breakdown[TEXTURE_ACC_R][MISS] = 0
	L2_cache_stats_breakdown[TEXTURE_ACC_R][RESERVATION_FAIL] = 0
	L2_cache_stats_breakdown[TEXTURE_ACC_R][SECTOR_MISS] = 0
	L2_cache_stats_breakdown[TEXTURE_ACC_R][MSHR_HIT] = 0
	L2_cache_stats_breakdown[GLOBAL_ACC_W][HIT] = 0
	L2_cache_stats_breakdown[GLOBAL_ACC_W][HIT_RESERVED] = 0
	L2_cache_stats_breakdown[GLOBAL_ACC_W][MISS] = 57278
	L2_cache_stats_breakdown[GLOBAL_ACC_W][RESERVATION_FAIL] = 0
	L2_cache_stats_breakdown[GLOBAL_ACC_W][SECTOR_MISS] = 171830
	L2_cache_stats_breakdown[GLOBAL_ACC_W][MSHR_HIT] = 0
	L2_cache_stats_breakdown[LOCAL_ACC_W][HIT] = 0
	L2_cache_stats_breakdown[LOCAL_ACC_W][HIT_RESERVED] = 0
	L2_cache_stats_breakdown[LOCAL_ACC_W][MISS] = 0
	L2_cache_stats_breakdown[LOCAL_ACC_W][RESERVATION_FAIL] = 0
	L2_cache_stats_breakdown[LOCAL_ACC_W][SECTOR_MISS] = 0
	L2_cache_stats_breakdown[LOCAL_ACC_W][MSHR_HIT] = 0
	L2_cache_stats_breakdown[L1_WRBK_ACC][HIT] = 0
	L2_cache_stats_breakdown[L1_WRBK_ACC][HIT_RESERVED] = 0
	L2_cache_stats_breakdown[L1_WRBK_ACC][MISS] = 0
	L2_cache_stats_breakdown[L1_WRBK_ACC][RESERVATION_FAIL] = 0
	L2_cache_stats_breakdown[L1_WRBK_ACC][SECTOR_MISS] = 0
	L2_cache_stats_breakdown[L1_WRBK_ACC][MSHR_HIT] = 0
	L2_cache_stats_breakdown[L2_WRBK_ACC][HIT] = 0
	L2_cache_stats_breakdown[L2_WRBK_ACC][HIT_RESERVED] = 0
	L2_cache_stats_breakdown[L2_WRBK_ACC][MISS] = 0
	L2_cache_stats_breakdown[L2_WRBK_ACC][RESERVATION_FAIL] = 0
	L2_cache_stats_breakdown[L2_WRBK_ACC][SECTOR_MISS] = 0
	L2_cache_stats_breakdown[L2_WRBK_ACC][MSHR_HIT] = 0
	L2_cache_stats_breakdown[INST_ACC_R][HIT] = 0
	L2_cache_stats_breakdown[INST_ACC_R][HIT_RESERVED] = 0
	L2_cache_stats_breakdown[INST_ACC_R][MISS] = 0
	L2_cache_stats_breakdown[INST_ACC_R][RESERVATION_FAIL] = 0
	L2_cache_stats_breakdown[INST_ACC_R][SECTOR_MISS] = 0
	L2_cache_stats_breakdown[INST_ACC_R][MSHR_HIT] = 0
	L2_cache_stats_breakdown[L1_WR_ALLOC_R][HIT] = 0
	L2_cache_stats_breakdown[L1_WR_ALLOC_R][HIT_RESERVED] = 0
	L2_cache_stats_breakdown[L1_WR_ALLOC_R][MISS] = 0
	L2_cache_stats_breakdown[L1_WR_ALLOC_R][RESERVATION_FAIL] = 0
	L2_cache_stats_breakdown[L1_WR_ALLOC_R][SECTOR_MISS] = 0
	L2_cache_stats_breakdown[L1_WR_ALLOC_R][MSHR_HIT] = 0
	L2_cache_stats_breakdown[L2_WR_ALLOC_R][HIT] = 0
	L2_cache_stats_breakdown[L2_WR_ALLOC_R][HIT_RESERVED] = 0
	L2_cache_stats_breakdown[L2_WR_ALLOC_R][MISS] = 0
	L2_cache_stats_breakdown[L2_WR_ALLOC_R][RESERVATION_FAIL] = 0
	L2_cache_stats_breakdown[L2_WR_ALLOC_R][SECTOR_MISS] = 0
	L2_cache_stats_breakdown[L2_WR_ALLOC_R][MSHR_HIT] = 0
	L2_cache_stats_breakdown[GLOBAL_ACC_R][TOTAL_ACCESS] = 6241684
	L2_cache_stats_breakdown[GLOBAL_ACC_W][TOTAL_ACCESS] = 229108
L2_total_cache_reservation_fail_breakdown:
L2_cache_data_port_util = 0.023
L2_cache_fill_port_util = 0.030

icnt_total_pkts_mem_to_simt=6470792
icnt_total_pkts_simt_to_mem=6470792
LD_mem_lat_dist  0 0 0 0 0 0 0 0 0 0 0 0 0 0 0 0 0 0 0 0 0 0 0 0 0 0 0
ST_mem_lat_dist  0 0 0 0 0 0 0 0 0 0 0 0 0 0 0 0 0 0 0 0 0 0 0 0 0 0 0
----------------------------Interconnect-DETAILS--------------------------------
Req_Network_injected_packets_num = 6470792
Req_Network_cycles = 4978438
Req_Network_injected_packets_per_cycle =       1.2998 
Req_Network_conflicts_per_cycle =       0.0765
Req_Network_conflicts_per_cycle_util =       0.1321
Req_Bank_Level_Parallism =       2.2460
Req_Network_in_buffer_full_per_cycle =       0.0000
Req_Network_in_buffer_avg_util =       0.0230
Req_Network_out_buffer_full_per_cycle =       0.0000
Req_Network_out_buffer_avg_util =       0.1061

Reply_Network_injected_packets_num = 6470792
Reply_Network_cycles = 4978438
Reply_Network_injected_packets_per_cycle =        1.2998
Reply_Network_conflicts_per_cycle =        0.4637
Reply_Network_conflicts_per_cycle_util =       0.7994
Reply_Bank_Level_Parallism =       2.2410
Reply_Network_in_buffer_full_per_cycle =       0.0000
Reply_Network_in_buffer_avg_util =       0.0423
Reply_Network_out_buffer_full_per_cycle =       0.0000
Reply_Network_out_buffer_avg_util =       0.0433
----------------------------END-of-Interconnect-DETAILS-------------------------


gpgpu_simulation_time = 0 days, 5 hrs, 54 min, 12 sec (21252 sec)
gpgpu_simulation_rate = 4051 (inst/sec)
gpgpu_simulation_rate = 234 (cycle/sec)
gpgpu_silicon_slowdown = 5833333x
GPGPU-Sim PTX: Setting up arguments for 4 bytes starting at 0x7ffe693f159c..
GPGPU-Sim PTX: Setting up arguments for 8 bytes starting at 0x7ffe693f1590..
GPGPU-Sim PTX: Setting up arguments for 8 bytes starting at 0x7ffe693f1588..
GPGPU-Sim PTX: Setting up arguments for 8 bytes starting at 0x7ffe693f1580..
GPGPU-Sim PTX: Setting up arguments for 4 bytes starting at 0x7ffe693f1598..

GPGPU-Sim PTX: cudaLaunch for 0x0x56462fa8f858 (mode=performance simulation) on stream 0
GPGPU-Sim PTX: finding reconvergence points for '_Z6l1normiPfS_S_f'...
GPGPU-Sim PTX: Finding dominators for '_Z6l1normiPfS_S_f'...
GPGPU-Sim PTX: Finding immediate dominators for '_Z6l1normiPfS_S_f'...
GPGPU-Sim PTX: Finding postdominators for '_Z6l1normiPfS_S_f'...
GPGPU-Sim PTX: Finding immediate postdominators for '_Z6l1normiPfS_S_f'...
GPGPU-Sim PTX: pre-decoding instructions for '_Z6l1normiPfS_S_f'...
GPGPU-Sim PTX: reconvergence points for _Z6l1normiPfS_S_f...
GPGPU-Sim PTX:  1 (potential) branch divergence @  PC=0x370 (pr_base.1.sm_75.ptx:224) @%p1 bra $L__BB2_2;

GPGPU-Sim PTX:    immediate post dominator      @  PC=0x3e8 (pr_base.1.sm_75.ptx:243) mov.u32 %r7, %laneid;

GPGPU-Sim PTX:  2 (potential) branch divergence @  PC=0x4a8 (pr_base.1.sm_75.ptx:268) @%p2 bra $L__BB2_4;

GPGPU-Sim PTX:    immediate post dominator      @  PC=0x4f0 (pr_base.1.sm_75.ptx:280) bar.sync 0;

GPGPU-Sim PTX:  3 (potential) branch divergence @  PC=0x500 (pr_base.1.sm_75.ptx:282) @%p3 bra $L__BB2_6;

GPGPU-Sim PTX:    immediate post dominator      @  PC=0x578 (pr_base.1.sm_75.ptx:300) @%p3 bra $L__BB2_8;

GPGPU-Sim PTX:  4 (potential) branch divergence @  PC=0x578 (pr_base.1.sm_75.ptx:300) @%p3 bra $L__BB2_8;

GPGPU-Sim PTX:    immediate post dominator      @  PC=0x590 (pr_base.1.sm_75.ptx:306) ret;

GPGPU-Sim PTX: ... end of reconvergence points for _Z6l1normiPfS_S_f
GPGPU-Sim PTX: ... done pre-decoding instructions for '_Z6l1normiPfS_S_f'.
GPGPU-Sim PTX: pushing kernel '_Z6l1normiPfS_S_f' to stream 0, gridDim= (3580,1,1) blockDim = (256,1,1) 
GPGPU-Sim uArch: Shader 25 bind to kernel 3 '_Z6l1normiPfS_S_f'
GPGPU-Sim uArch: CTA/core = 4, limited by: threads
GPGPU-Sim: Reconfigure L1 cache to 64KB
GPGPU-Sim uArch: Shader 26 bind to kernel 3 '_Z6l1normiPfS_S_f'
GPGPU-Sim uArch: Shader 27 bind to kernel 3 '_Z6l1normiPfS_S_f'
GPGPU-Sim uArch: Shader 28 bind to kernel 3 '_Z6l1normiPfS_S_f'
GPGPU-Sim uArch: Shader 29 bind to kernel 3 '_Z6l1normiPfS_S_f'
GPGPU-Sim uArch: Shader 0 bind to kernel 3 '_Z6l1normiPfS_S_f'
GPGPU-Sim uArch: Shader 1 bind to kernel 3 '_Z6l1normiPfS_S_f'
GPGPU-Sim uArch: Shader 2 bind to kernel 3 '_Z6l1normiPfS_S_f'
GPGPU-Sim uArch: Shader 3 bind to kernel 3 '_Z6l1normiPfS_S_f'
GPGPU-Sim uArch: Shader 4 bind to kernel 3 '_Z6l1normiPfS_S_f'
GPGPU-Sim uArch: Shader 5 bind to kernel 3 '_Z6l1normiPfS_S_f'
GPGPU-Sim uArch: Shader 6 bind to kernel 3 '_Z6l1normiPfS_S_f'
GPGPU-Sim uArch: Shader 7 bind to kernel 3 '_Z6l1normiPfS_S_f'
GPGPU-Sim uArch: Shader 8 bind to kernel 3 '_Z6l1normiPfS_S_f'
GPGPU-Sim uArch: Shader 9 bind to kernel 3 '_Z6l1normiPfS_S_f'
GPGPU-Sim uArch: Shader 10 bind to kernel 3 '_Z6l1normiPfS_S_f'
GPGPU-Sim uArch: Shader 11 bind to kernel 3 '_Z6l1normiPfS_S_f'
GPGPU-Sim uArch: Shader 12 bind to kernel 3 '_Z6l1normiPfS_S_f'
GPGPU-Sim uArch: Shader 13 bind to kernel 3 '_Z6l1normiPfS_S_f'
GPGPU-Sim uArch: Shader 14 bind to kernel 3 '_Z6l1normiPfS_S_f'
GPGPU-Sim uArch: Shader 15 bind to kernel 3 '_Z6l1normiPfS_S_f'
GPGPU-Sim uArch: Shader 16 bind to kernel 3 '_Z6l1normiPfS_S_f'
GPGPU-Sim uArch: Shader 17 bind to kernel 3 '_Z6l1normiPfS_S_f'
GPGPU-Sim uArch: Shader 18 bind to kernel 3 '_Z6l1normiPfS_S_f'
GPGPU-Sim uArch: Shader 19 bind to kernel 3 '_Z6l1normiPfS_S_f'
GPGPU-Sim uArch: Shader 20 bind to kernel 3 '_Z6l1normiPfS_S_f'
GPGPU-Sim uArch: Shader 21 bind to kernel 3 '_Z6l1normiPfS_S_f'
GPGPU-Sim uArch: Shader 22 bind to kernel 3 '_Z6l1normiPfS_S_f'
GPGPU-Sim uArch: Shader 23 bind to kernel 3 '_Z6l1normiPfS_S_f'
GPGPU-Sim uArch: Shader 24 bind to kernel 3 '_Z6l1normiPfS_S_f'
