

        *** GPGPU-Sim Simulator Version 4.2.0  [build gpgpu-sim_git-commit-5e9d31b8132651796656877ecb58fde27177ba7a_modified_315.0] ***


GPGPU-Sim PTX: simulation mode 0 (can change with PTX_SIM_MODE_FUNC environment variable:
               1=functional simulation only, 0=detailed performance simulator)
GPGPU-Sim PTX: overriding embedded ptx with ptx file (PTX_SIM_USE_PTX_FILE is set)
GPGPU-Sim: Configuration options:

-save_embedded_ptx                      0 # saves ptx files embedded in binary as <n>.ptx
-keep                                   0 # keep intermediate files created by GPGPU-Sim when interfacing with external programs
-gpgpu_ptx_save_converted_ptxplus                    0 # Saved converted ptxplus to a file
-gpgpu_occupancy_sm_number                   75 # The SM number to pass to ptxas when getting register usage for computing GPU occupancy. This parameter is required in the config.
-ptx_opcode_latency_int           4,4,4,4,21 # Opcode latencies for integers <ADD,MAX,MUL,MAD,DIV,SHFL>Default 1,1,19,25,145,32
-ptx_opcode_latency_fp           4,4,4,4,39 # Opcode latencies for single precision floating points <ADD,MAX,MUL,MAD,DIV>Default 1,1,1,1,30
-ptx_opcode_latency_dp      64,64,64,64,330 # Opcode latencies for double precision floating points <ADD,MAX,MUL,MAD,DIV>Default 8,8,8,8,335
-ptx_opcode_latency_sfu                   21 # Opcode latencies for SFU instructionsDefault 8
-ptx_opcode_latency_tesnor                   64 # Opcode latencies for Tensor instructionsDefault 64
-ptx_opcode_initiation_int            2,2,2,2,2 # Opcode initiation intervals for integers <ADD,MAX,MUL,MAD,DIV,SHFL>Default 1,1,4,4,32,4
-ptx_opcode_initiation_fp            2,2,2,2,4 # Opcode initiation intervals for single precision floating points <ADD,MAX,MUL,MAD,DIV>Default 1,1,1,1,5
-ptx_opcode_initiation_dp      64,64,64,64,130 # Opcode initiation intervals for double precision floating points <ADD,MAX,MUL,MAD,DIV>Default 8,8,8,8,130
-ptx_opcode_initiation_sfu                    8 # Opcode initiation intervals for sfu instructionsDefault 8
-ptx_opcode_initiation_tensor                   64 # Opcode initiation intervals for tensor instructionsDefault 64
-cdp_latency         7200,8000,100,12000,1600 # CDP API latency <cudaStreamCreateWithFlags, cudaGetParameterBufferV2_init_perWarp, cudaGetParameterBufferV2_perKernel, cudaLaunchDeviceV2_init_perWarp, cudaLaunchDevicV2_perKernel>Default 7200,8000,100,12000,1600
-network_mode                           2 # Interconnection network mode
-inter_config_file                   mesh # Interconnection network config file
-icnt_in_buffer_limit                  512 # in_buffer_limit
-icnt_out_buffer_limit                  512 # out_buffer_limit
-icnt_subnets                           2 # subnets
-icnt_arbiter_algo                      1 # arbiter_algo
-icnt_verbose                           0 # inct_verbose
-icnt_grant_cycles                      1 # grant_cycles
-gpgpu_ptx_use_cuobjdump                    1 # Use cuobjdump to extract ptx and sass from binaries
-gpgpu_experimental_lib_support                    0 # Try to extract code from cuda libraries [Broken because of unknown cudaGetExportTable]
-checkpoint_option                      0 #  checkpointing flag (0 = no checkpoint)
-checkpoint_kernel                      1 #  checkpointing during execution of which kernel (1- 1st kernel)
-checkpoint_CTA                         0 #  checkpointing after # of CTA (< less than total CTA)
-resume_option                          0 #  resume flag (0 = no resume)
-resume_kernel                          0 #  Resume from which kernel (1= 1st kernel)
-resume_CTA                             0 #  resume from which CTA 
-checkpoint_CTA_t                       0 #  resume from which CTA 
-checkpoint_insn_Y                      0 #  resume from which CTA 
-gpgpu_ptx_convert_to_ptxplus                    0 # Convert SASS (native ISA) to ptxplus and run ptxplus
-gpgpu_ptx_force_max_capability                   75 # Force maximum compute capability
-gpgpu_ptx_inst_debug_to_file                    0 # Dump executed instructions' debug information to file
-gpgpu_ptx_inst_debug_file       inst_debug.txt # Executed instructions' debug output file
-gpgpu_ptx_inst_debug_thread_uid                    1 # Thread UID for executed instructions' debug output
-gpgpu_simd_model                       1 # 1 = post-dominator
-gpgpu_shader_core_pipeline              1024:32 # shader core pipeline config, i.e., {<nthread>:<warpsize>}
-gpgpu_tex_cache:l1  N:4:128:256,L:R:m:N:L,T:512:8,128:2 # per-shader L1 texture cache  (READ-ONLY) config  {<nsets>:<bsize>:<assoc>,<rep>:<wr>:<alloc>:<wr_alloc>,<mshr>:<N>:<merge>,<mq>:<rf>}
-gpgpu_const_cache:l1 N:128:64:8,L:R:f:N:L,S:2:64,4 # per-shader L1 constant memory cache  (READ-ONLY) config  {<nsets>:<bsize>:<assoc>,<rep>:<wr>:<alloc>:<wr_alloc>,<mshr>:<N>:<merge>,<mq>} 
-gpgpu_cache:il1     N:64:128:16,L:R:f:N:L,S:2:48,4 # shader L1 instruction cache config  {<nsets>:<bsize>:<assoc>,<rep>:<wr>:<alloc>:<wr_alloc>,<mshr>:<N>:<merge>,<mq>} 
-gpgpu_cache:dl1     S:4:128:64,L:T:m:L:L,A:256:32,16:0,32 # per-shader L1 data cache config  {<nsets>:<bsize>:<assoc>,<rep>:<wr>:<alloc>:<wr_alloc>,<mshr>:<N>:<merge>,<mq> | none}
-gpgpu_l1_cache_write_ratio                   25 # L1D write ratio
-gpgpu_l1_banks                         4 # The number of L1 cache banks
-gpgpu_l1_banks_byte_interleaving                   32 # l1 banks byte interleaving granularity
-gpgpu_l1_banks_hashing_function                    0 # l1 banks hashing function
-gpgpu_l1_latency                      32 # L1 Hit Latency
-gpgpu_smem_latency                    30 # smem Latency
-gpgpu_cache:dl1PrefL1                 none # per-shader L1 data cache config  {<nsets>:<bsize>:<assoc>,<rep>:<wr>:<alloc>:<wr_alloc>,<mshr>:<N>:<merge>,<mq> | none}
-gpgpu_cache:dl1PrefShared                 none # per-shader L1 data cache config  {<nsets>:<bsize>:<assoc>,<rep>:<wr>:<alloc>:<wr_alloc>,<mshr>:<N>:<merge>,<mq> | none}
-gpgpu_gmem_skip_L1D                    0 # global memory access skip L1D cache (implements -Xptxas -dlcm=cg, default=no skip)
-gpgpu_perfect_mem                      0 # enable perfect memory mode (no cache miss)
-n_regfile_gating_group                    4 # group of lanes that should be read/written together)
-gpgpu_clock_gated_reg_file                    0 # enable clock gated reg file for power calculations
-gpgpu_clock_gated_lanes                    0 # enable clock gated lanes for power calculations
-gpgpu_shader_registers                65536 # Number of registers per shader core. Limits number of concurrent CTAs. (default 8192)
-gpgpu_registers_per_block                65536 # Maximum number of registers per CTA. (default 8192)
-gpgpu_ignore_resources_limitation                    0 # gpgpu_ignore_resources_limitation (default 0)
-gpgpu_shader_cta                      16 # Maximum number of concurrent CTAs in shader (default 32)
-gpgpu_num_cta_barriers                   16 # Maximum number of named barriers per CTA (default 16)
-gpgpu_n_clusters                      30 # number of processing clusters
-gpgpu_n_cores_per_cluster                    1 # number of simd cores per cluster
-gpgpu_n_cluster_ejection_buffer_size                   32 # number of packets in ejection buffer
-gpgpu_n_ldst_response_buffer_size                    2 # number of response packets in ld/st unit ejection buffer
-gpgpu_shmem_per_block                49152 # Size of shared memory per thread block or CTA (default 48kB)
-gpgpu_shmem_size                   65536 # Size of shared memory per shader core (default 16kB)
-gpgpu_shmem_option                 32,64 # Option list of shared memory sizes
-gpgpu_unified_l1d_size                   96 # Size of unified data cache(L1D + shared memory) in KB
-gpgpu_adaptive_cache_config                    1 # adaptive_cache_config
-gpgpu_shmem_sizeDefault                65536 # Size of shared memory per shader core (default 16kB)
-gpgpu_shmem_size_PrefL1                16384 # Size of shared memory per shader core (default 16kB)
-gpgpu_shmem_size_PrefShared                16384 # Size of shared memory per shader core (default 16kB)
-gpgpu_shmem_num_banks                   32 # Number of banks in the shared memory in each shader core (default 16)
-gpgpu_shmem_limited_broadcast                    0 # Limit shared memory to do one broadcast per cycle (default on)
-gpgpu_shmem_warp_parts                    1 # Number of portions a warp is divided into for shared memory bank conflict check 
-gpgpu_mem_unit_ports                    1 # The number of memory transactions allowed per core cycle
-gpgpu_shmem_warp_parts                    1 # Number of portions a warp is divided into for shared memory bank conflict check 
-gpgpu_warpdistro_shader                   -1 # Specify which shader core to collect the warp size distribution from
-gpgpu_warp_issue_shader                    0 # Specify which shader core to collect the warp issue distribution from
-gpgpu_local_mem_map                    1 # Mapping from local memory space address to simulated GPU physical address space (default = enabled)
-gpgpu_num_reg_banks                    8 # Number of register banks (default = 8)
-gpgpu_reg_bank_use_warp_id                    0 # Use warp ID in mapping registers to banks (default = off)
-gpgpu_sub_core_model                    1 # Sub Core Volta/Pascal model (default = off)
-gpgpu_enable_specialized_operand_collector                    0 # enable_specialized_operand_collector
-gpgpu_operand_collector_num_units_sp                    4 # number of collector units (default = 4)
-gpgpu_operand_collector_num_units_dp                    0 # number of collector units (default = 0)
-gpgpu_operand_collector_num_units_sfu                    4 # number of collector units (default = 4)
-gpgpu_operand_collector_num_units_int                    0 # number of collector units (default = 0)
-gpgpu_operand_collector_num_units_tensor_core                    4 # number of collector units (default = 4)
-gpgpu_operand_collector_num_units_mem                    2 # number of collector units (default = 2)
-gpgpu_operand_collector_num_units_gen                    8 # number of collector units (default = 0)
-gpgpu_operand_collector_num_in_ports_sp                    1 # number of collector unit in ports (default = 1)
-gpgpu_operand_collector_num_in_ports_dp                    0 # number of collector unit in ports (default = 0)
-gpgpu_operand_collector_num_in_ports_sfu                    1 # number of collector unit in ports (default = 1)
-gpgpu_operand_collector_num_in_ports_int                    0 # number of collector unit in ports (default = 0)
-gpgpu_operand_collector_num_in_ports_tensor_core                    1 # number of collector unit in ports (default = 1)
-gpgpu_operand_collector_num_in_ports_mem                    1 # number of collector unit in ports (default = 1)
-gpgpu_operand_collector_num_in_ports_gen                    8 # number of collector unit in ports (default = 0)
-gpgpu_operand_collector_num_out_ports_sp                    1 # number of collector unit in ports (default = 1)
-gpgpu_operand_collector_num_out_ports_dp                    0 # number of collector unit in ports (default = 0)
-gpgpu_operand_collector_num_out_ports_sfu                    1 # number of collector unit in ports (default = 1)
-gpgpu_operand_collector_num_out_ports_int                    0 # number of collector unit in ports (default = 0)
-gpgpu_operand_collector_num_out_ports_tensor_core                    1 # number of collector unit in ports (default = 1)
-gpgpu_operand_collector_num_out_ports_mem                    1 # number of collector unit in ports (default = 1)
-gpgpu_operand_collector_num_out_ports_gen                    8 # number of collector unit in ports (default = 0)
-gpgpu_coalesce_arch                   75 # Coalescing arch (GT200 = 13, Fermi = 20)
-gpgpu_num_sched_per_core                    4 # Number of warp schedulers per core
-gpgpu_max_insn_issue_per_warp                    1 # Max number of instructions that can be issued per warp in one cycle by scheduler (either 1 or 2)
-gpgpu_dual_issue_diff_exec_units                    1 # should dual issue use two different execution unit resources (Default = 1)
-gpgpu_simt_core_sim_order                    1 # Select the simulation order of cores in a cluster (0=Fix, 1=Round-Robin)
-gpgpu_pipeline_widths 4,4,4,4,4,4,4,4,4,4,8,4,4 # Pipeline widths ID_OC_SP,ID_OC_DP,ID_OC_INT,ID_OC_SFU,ID_OC_MEM,OC_EX_SP,OC_EX_DP,OC_EX_INT,OC_EX_SFU,OC_EX_MEM,EX_WB,ID_OC_TENSOR_CORE,OC_EX_TENSOR_CORE
-gpgpu_tensor_core_avail                    1 # Tensor Core Available (default=0)
-gpgpu_num_sp_units                     4 # Number of SP units (default=1)
-gpgpu_num_dp_units                     4 # Number of DP units (default=0)
-gpgpu_num_int_units                    4 # Number of INT units (default=0)
-gpgpu_num_sfu_units                    4 # Number of SF units (default=1)
-gpgpu_num_tensor_core_units                    4 # Number of tensor_core units (default=1)
-gpgpu_num_mem_units                    1 # Number if ldst units (default=1) WARNING: not hooked up to anything
-gpgpu_scheduler                      lrr # Scheduler configuration: < lrr | gto | two_level_active > If two_level_active:<num_active_warps>:<inner_prioritization>:<outer_prioritization>For complete list of prioritization values see shader.h enum scheduler_prioritization_typeDefault: gto
-gpgpu_concurrent_kernel_sm                    0 # Support concurrent kernels on a SM (default = disabled)
-gpgpu_perfect_inst_const_cache                    1 # perfect inst and const cache mode, so all inst and const hits in the cache(default = disabled)
-gpgpu_inst_fetch_throughput                    4 # the number of fetched intruction per warp each cycle
-gpgpu_reg_file_port_throughput                    2 # the number ports of the register file
-specialized_unit_1         0,4,4,4,4,BRA # specialized unit config {<enabled>,<num_units>:<latency>:<initiation>,<ID_OC_SPEC>:<OC_EX_SPEC>,<NAME>}
-specialized_unit_2         0,4,4,4,4,BRA # specialized unit config {<enabled>,<num_units>:<latency>:<initiation>,<ID_OC_SPEC>:<OC_EX_SPEC>,<NAME>}
-specialized_unit_3         0,4,4,4,4,BRA # specialized unit config {<enabled>,<num_units>:<latency>:<initiation>,<ID_OC_SPEC>:<OC_EX_SPEC>,<NAME>}
-specialized_unit_4         0,4,4,4,4,BRA # specialized unit config {<enabled>,<num_units>:<latency>:<initiation>,<ID_OC_SPEC>:<OC_EX_SPEC>,<NAME>}
-specialized_unit_5         0,4,4,4,4,BRA # specialized unit config {<enabled>,<num_units>:<latency>:<initiation>,<ID_OC_SPEC>:<OC_EX_SPEC>,<NAME>}
-specialized_unit_6         0,4,4,4,4,BRA # specialized unit config {<enabled>,<num_units>:<latency>:<initiation>,<ID_OC_SPEC>:<OC_EX_SPEC>,<NAME>}
-specialized_unit_7         0,4,4,4,4,BRA # specialized unit config {<enabled>,<num_units>:<latency>:<initiation>,<ID_OC_SPEC>:<OC_EX_SPEC>,<NAME>}
-specialized_unit_8         0,4,4,4,4,BRA # specialized unit config {<enabled>,<num_units>:<latency>:<initiation>,<ID_OC_SPEC>:<OC_EX_SPEC>,<NAME>}
-gpgpu_perf_sim_memcpy                    1 # Fill the L2 cache on memcpy
-gpgpu_simple_dram_model                    0 # simple_dram_model with fixed latency and BW
-gpgpu_dram_scheduler                    1 # 0 = fifo, 1 = FR-FCFS (defaul)
-gpgpu_dram_partition_queues          64:64:64:64 # i2$:$2d:d2$:$2i
-l2_ideal                               0 # Use a ideal L2 cache that always hit
-gpgpu_cache:dl2     S:64:128:16,L:B:m:L:P,A:192:4,32:0,32 # unified banked L2 data cache config  {<nsets>:<bsize>:<assoc>,<rep>:<wr>:<alloc>:<wr_alloc>,<mshr>:<N>:<merge>,<mq>}
-gpgpu_cache:dl2_texture_only                    0 # L2 cache used for texture only
-gpgpu_n_mem                           12 # number of memory modules (e.g. memory controllers) in gpu
-gpgpu_n_sub_partition_per_mchannel                    2 # number of memory subpartition in each memory module
-gpgpu_n_mem_per_ctrlr                    1 # number of memory chips per memory controller
-gpgpu_memlatency_stat                   14 # track and display latency statistics 0x2 enables MC, 0x4 enables queue logs
-gpgpu_frfcfs_dram_sched_queue_size                   64 # 0 = unlimited (default); # entries per chip
-gpgpu_dram_return_queue_size                  192 # 0 = unlimited (default); # entries per chip
-gpgpu_dram_buswidth                    2 # default = 4 bytes (8 bytes per cycle at DDR)
-gpgpu_dram_burst_length                   16 # Burst length of each DRAM request (default = 4 data bus cycle)
-dram_data_command_freq_ratio                    4 # Frequency ratio between DRAM data bus and command bus (default = 2 times, i.e. DDR)
-gpgpu_dram_timing_opt nbk=16:CCD=4:RRD=12:RCD=24:RAS=55:RP=24:RC=78:CL=24:WL=8:CDLR=10:WR=24:nbkgrp=4:CCDL=6:RTPL=4 # DRAM timing parameters = {nbk:tCCD:tRRD:tRCD:tRAS:tRP:tRC:CL:WL:tCDLR:tWR:nbkgrp:tCCDL:tRTPL}
-gpgpu_l2_rop_latency                  194 # ROP queue latency (default 85)
-dram_latency                          96 # DRAM latency (default 30)
-dram_dual_bus_interface                    0 # dual_bus_interface (default = 0) 
-dram_bnk_indexing_policy                    0 # dram_bnk_indexing_policy (0 = normal indexing, 1 = Xoring with the higher bits) (Default = 0)
-dram_bnkgrp_indexing_policy                    1 # dram_bnkgrp_indexing_policy (0 = take higher bits, 1 = take lower bits) (Default = 0)
-dram_seperate_write_queue_enable                    0 # Seperate_Write_Queue_Enable
-dram_write_queue_size             32:28:16 # Write_Queue_Size
-dram_elimnate_rw_turnaround                    0 # elimnate_rw_turnaround i.e set tWTR and tRTW = 0
-icnt_flit_size                        40 # icnt_flit_size
-icnt_flit_size                        40 # icnt_flit_size
-mem_profiler                           0 # memory access runtime profiling (0 = not enabled)
-gpgpu_mem_addr_mapping dramid@8;00000000.00000000.00000000.00000000.0000RRRR.RRRRRRRR.RBBBCCCC.BCCSSSSS # mapping memory address to dram model {dramid@<start bit>;<memory address map>}
-gpgpu_mem_addr_test                    0 # run sweep test to check address mapping for aliased address
-gpgpu_mem_address_mask                    1 # 0 = old addressing mask, 1 = new addressing mask, 2 = new add. mask + flipped bank sel and chip sel bits
-gpgpu_memory_partition_indexing                    0 # 0 = no indexing, 1 = bitwise xoring, 2 = IPoly, 3 = custom indexing
-accelwattch_xml_file accelwattch_sass_sim.xml # AccelWattch XML file
-power_simulation_enabled                    1 # Turn on power simulator (1=On, 0=Off)
-power_per_cycle_dump                    1 # Dump detailed power output each cycle
-hw_perf_file_name            hw_perf.csv # Hardware Performance Statistics file
-hw_perf_bench_name    hw_perf_bench_name # Kernel Name in Hardware Performance Statistics file
-power_simulation_mode                    0 # Switch performance counter input for power simulation (0=Sim, 1=HW, 2=HW-Sim Hybrid)
-dvfs_enabled                           1 # Turn on DVFS for power model
-aggregate_power_stats                    0 # Accumulate power across all kernels
-accelwattch_hybrid_perfsim_L1_RH                    0 # Get L1 Read Hits for Accelwattch-Hybrid from Accel-Sim
-accelwattch_hybrid_perfsim_L1_RM                    0 # Get L1 Read Misses for Accelwattch-Hybrid from Accel-Sim
-accelwattch_hybrid_perfsim_L1_WH                    0 # Get L1 Write Hits for Accelwattch-Hybrid from Accel-Sim
-accelwattch_hybrid_perfsim_L1_WM                    0 # Get L1 Write Misses for Accelwattch-Hybrid from Accel-Sim
-accelwattch_hybrid_perfsim_L2_RH                    0 # Get L2 Read Hits for Accelwattch-Hybrid from Accel-Sim
-accelwattch_hybrid_perfsim_L2_RM                    0 # Get L2 Read Misses for Accelwattch-Hybrid from Accel-Sim
-accelwattch_hybrid_perfsim_L2_WH                    0 # Get L2 Write Hits for Accelwattch-Hybrid from Accel-Sim
-accelwattch_hybrid_perfsim_L2_WM                    0 # Get L2 Write Misses for Accelwattch-Hybrid from Accel-Sim
-accelwattch_hybrid_perfsim_CC_ACC                    0 # Get Constant Cache Acesses for Accelwattch-Hybrid from Accel-Sim
-accelwattch_hybrid_perfsim_SHARED_ACC                    0 # Get Shared Memory Acesses for Accelwattch-Hybrid from Accel-Sim
-accelwattch_hybrid_perfsim_DRAM_RD                    0 # Get DRAM Reads for Accelwattch-Hybrid from Accel-Sim
-accelwattch_hybrid_perfsim_DRAM_WR                    0 # Get DRAM Writes for Accelwattch-Hybrid from Accel-Sim
-accelwattch_hybrid_perfsim_NOC                    0 # Get Interconnect Acesses for Accelwattch-Hybrid from Accel-Sim
-accelwattch_hybrid_perfsim_PIPE_DUTY                    0 # Get Pipeline Duty Cycle Acesses for Accelwattch-Hybrid from Accel-Sim
-accelwattch_hybrid_perfsim_NUM_SM_IDLE                    0 # Get Number of Idle SMs for Accelwattch-Hybrid from Accel-Sim
-accelwattch_hybrid_perfsim_CYCLES                    0 # Get Executed Cycles for Accelwattch-Hybrid from Accel-Sim
-accelwattch_hybrid_perfsim_VOLTAGE                    0 # Get Chip Voltage for Accelwattch-Hybrid from Accel-Sim
-power_trace_enabled                    0 # produce a file for the power trace (1=On, 0=Off)
-power_trace_zlevel                     0 # Compression level of the power trace output log (0=no comp, 9=highest)
-steady_power_levels_enabled                    0 # produce a file for the steady power levels (1=On, 0=Off)
-steady_state_definition                  8:4 # allowed deviation:number of samples
-gpgpu_max_cycle                        0 # terminates gpu simulation early (0 = no limit)
-gpgpu_max_insn                         0 # terminates gpu simulation early (0 = no limit)
-gpgpu_max_cta                          0 # terminates gpu simulation early (0 = no limit)
-gpgpu_max_completed_cta                    0 # terminates gpu simulation early (0 = no limit)
-gpgpu_runtime_stat                  1000 # display runtime statistics such as dram utilization {<freq>:<flag>}
-liveness_message_freq                    1 # Minimum number of seconds between simulation liveness messages (0 = always print)
-gpgpu_compute_capability_major                    7 # Major compute capability version number
-gpgpu_compute_capability_minor                    5 # Minor compute capability version number
-gpgpu_flush_l1_cache                    1 # Flush L1 cache at the end of each kernel call
-gpgpu_flush_l2_cache                    0 # Flush L2 cache at the end of each kernel call
-gpgpu_deadlock_detect                    1 # Stop the simulation at deadlock (1=on (default), 0=off)
-gpgpu_ptx_instruction_classification                    0 # if enabled will classify ptx instruction types per kernel (Max 255 kernels now)
-gpgpu_ptx_sim_mode                     0 # Select between Performance (default) or Functional simulation (1)
-gpgpu_clock_domains 1365:1365:1365:3500.5 # Clock Domain Frequencies in MhZ {<Core Clock>:<ICNT Clock>:<L2 Clock>:<DRAM Clock>}
-gpgpu_max_concurrent_kernel                  128 # maximum kernels that can run concurrently on GPU, set this value according to max resident grids for your compute capability
-gpgpu_cflog_interval                    0 # Interval between each snapshot in control flow logger
-visualizer_enabled                     0 # Turn on visualizer output (1=On, 0=Off)
-visualizer_outputfile                 NULL # Specifies the output log file for visualizer
-visualizer_zlevel                      6 # Compression level of the visualizer output log (0=no comp, 9=highest)
-gpgpu_stack_size_limit                 1024 # GPU thread stack size
-gpgpu_heap_size_limit              8388608 # GPU malloc heap size 
-gpgpu_runtime_sync_depth_limit                    2 # GPU device runtime synchronize depth
-gpgpu_runtime_pending_launch_count_limit                 2048 # GPU device runtime pending launch count
-trace_enabled                          0 # Turn on traces
-trace_components                    none # comma seperated list of traces to enable. Complete list found in trace_streams.tup. Default none
-trace_sampling_core                    0 # The core which is printed using CORE_DPRINTF. Default 0
-trace_sampling_memory_partition                   -1 # The memory partition which is printed using MEMPART_DPRINTF. Default -1 (i.e. all)
-enable_ptx_file_line_stats                    1 # Turn on PTX source line statistic profiling. (1 = On)
-ptx_line_stats_filename gpgpu_inst_stats.txt # Output file for PTX source line statistics.
-gpgpu_kernel_launch_latency                 5000 # Kernel launch latency in cycles. Default: 0
-gpgpu_cdp_enabled                      0 # Turn on CDP
-gpgpu_TB_launch_latency                    0 # thread block launch latency in cycles. Default: 0
-mem_runtime_stat                     100 # memory access runtime profiling samplingac1eea08e21c65ec61d1c5ea6f31ebd3  /home/pars/Documents/sim_10/bc_topo_lb
Extracting PTX file and ptxas options    1: bc_topo_lb.1.sm_75.ptx -arch=sm_75
 freq
-L1D_metrics                            0 # memory access runtime profiling for L1 data cache
-IPC_per_prof_interval                    0 # IPC per profiling interval
-instruction_monitor                    0 # Instruction monitor
-noncoal_metrics                        0 # memory access runtime profiling for shared memory
-L2_metrics                             0 # memory access runtime profiling for L2 cache
-DRAM_metrics                           0 # memory access runtime profiling for DRAM
-Shmem_metrics                          0 # memory access runtime profiling for noncoalesced accesses
-store_enable                           0 # Enable stores for memory profiling
-accumulate_stats                       0 # Accumulate stats for the memory profiling
-dump_enable                            0 # Process dump enable flag - (def = 0)
-flush_l1d                              0 # Enable flushings for L1D caches - (default = 0)
-flush_l2                               0 # Enable flushings for L2 caches - (default = 0)
-flush_dram                             0 # Enable flushings for DRAM - (default = 0)
-flush_noncoalesceds                    0 # Enable flushings for non coalesced accesses - (default = 0)
-flush_shmems                           0 # Enable flushings for shared memory accesses - (default = 0)
-error_percentage          21474836480001 # Error percentage for the flushes - (default = 1)
-dump_sampling_cycle       21474836485000 # Dump sampling frequency - (default = 5000)
-flush_acc_type                         2 # Flush access types
-monitor_sampling_cycle                 5000 # Monitoring sampling cycle - (default = 5000)
DRAM Timing Options:
nbk                                    16 # number of banks
CCD                                     4 # column to column delay
RRD                                    12 # minimal delay between activation of rows in different banks
RCD                                    24 # row to column delay
RAS                                    55 # time needed to activate row
RP                                     24 # time needed to precharge (deactivate) row
RC                                     78 # row cycle time
CDLR                                   10 # switching from write to read (changes tWTR)
WR                                     24 # last data-in to row precharge
CL                                     24 # CAS latency
WL                                      8 # Write latency
nbkgrp                                  4 # number of bank groups
CCDL                                    6 # column to column delay between accesses to different bank groups
RTPL                                    4 # read to precharge delay between accesses to different bank groups
Total number of memory sub partition = 24
addr_dec_mask[CHIP]  = 0000000000000000 	high:64 low:0
addr_dec_mask[BK]    = 0000000000007080 	high:15 low:7
addr_dec_mask[ROW]   = 000000000fff8000 	high:28 low:15
addr_dec_mask[COL]   = 0000000000000f7f 	high:12 low:0
addr_dec_mask[BURST] = 000000000000001f 	high:5 low:0
sub_partition_id_mask = 0000000000000080
GPGPU-Sim uArch: clock freqs: 1365000000.000000:1365000000.000000:1365000000.000000:3500500000.000000
GPGPU-Sim uArch: clock periods: 0.00000000073260073260:0.00000000073260073260:0.00000000073260073260:0.00000000028567347522
*** Initializing Memory Statistics ***
GPGPU-Sim uArch: performance model initialization complete.
self exe links to: /home/pars/Documents/sim_10/bc_topo_lb
self exe links to: /home/pars/Documents/sim_10/bc_topo_lb
11.0
GPGPU-Sim PTX: __cudaRegisterFatBinary, fat_cubin_handle = 1, filename=default
self exe links to: /home/pars/Documents/sim_10/bc_topo_lb
Running md5sum using "md5sum /home/pars/Documents/sim_10/bc_topo_lb "
self exe links to: /home/pars/Documents/sim_10/bc_topo_lb
Extracting specific PTX file named bc_topo_lb.1.sm_75.ptx 
GPGPU-Sim PTX: __cudaRegisterFunction _ZN6thrust8cuda_cub4core13_kernel_agentINS0_14__parallel_for16ParallelForAgentINS0_11__transform17unary_transform_fIPNS_5tupleIflNS_9null_typeES8_S8_S8_S8_S8_S8_S8_EESA_NS5_14no_stencil_tagENS_8identityIS9_EENS5_21always_true_predicateEEElEESF_lEEvT0_T1_ : hostFun 0x0x562df0d3cd1f, fat_cubin_handle = 1
GPGPU-Sim PTX: Parsing bc_topo_lb.1.sm_75.ptx
GPGPU-Sim PTX: allocating global region for "_ZN41_INTERNAL_1f8a2d2c_10_topo_lb_cu_297024296thrust6system6detail10sequential3seqE" from 0x100 to 0x101 (global memory space)
GPGPU-Sim PTX: allocating global region for "_ZN41_INTERNAL_1f8a2d2c_10_topo_lb_cu_297024296thrust6system3cpp3parE" from 0x101 to 0x102 (global memory space)
GPGPU-Sim PTX: allocating global region for "_ZN41_INTERNAL_1f8a2d2c_10_topo_lb_cu_297024296thrust8cuda_cub3parE" from 0x102 to 0x103 (global memory space)
GPGPU-Sim PTX: allocating global region for "_ZN41_INTERNAL_1f8a2d2c_10_topo_lb_cu_297024296thrust12placeholders2_1E" from 0x103 to 0x104 (global memory space)
GPGPU-Sim PTX: allocating global region for "_ZN41_INTERNAL_1f8a2d2c_10_topo_lb_cu_297024296thrust12placeholders2_2E" from 0x104 to 0x105 (global memory space)
GPGPU-Sim PTX: allocating global region for "_ZN41_INTERNAL_1f8a2d2c_10_topo_lb_cu_297024296thrust12placeholders2_3E" from 0x105 to 0x106 (global memory space)
GPGPU-Sim PTX: allocating global region for "_ZN41_INTERNAL_1f8a2d2c_10_topo_lb_cu_297024296thrust12placeholders2_4E" from 0x106 to 0x107 (global memory space)
GPGPU-Sim PTX: allocating global region for "_ZN41_INTERNAL_1f8a2d2c_10_topo_lb_cu_297024296thrust12placeholders2_5E" from 0x107 to 0x108 (global memory space)
GPGPU-Sim PTX: allocating global region for "_ZN41_INTERNAL_1f8a2d2c_10_topo_lb_cu_297024296thrust12placeholders2_6E" from 0x108 to 0x109 (global memory space)
GPGPU-Sim PTX: allocating global region for "_ZN41_INTERNAL_1f8a2d2c_10_topo_lb_cu_297024296thrust12placeholders2_7E" from 0x109 to 0x10a (global memory space)
GPGPU-Sim PTX: allocating global region for "_ZN41_INTERNAL_1f8a2d2c_10_topo_lb_cu_297024296thrust12placeholders2_8E" from 0x10a to 0x10b (global memory space)
GPGPU-Sim PTX: allocating global region for "_ZN41_INTERNAL_1f8a2d2c_10_topo_lb_cu_297024296thrust12placeholders2_9E" from 0x10b to 0x10c (global memory space)
GPGPU-Sim PTX: allocating global region for "_ZN41_INTERNAL_1f8a2d2c_10_topo_lb_cu_297024296thrust12placeholders3_10E" from 0x10c to 0x10d (global memory space)
GPGPU-Sim PTX: allocating global region for "_ZN41_INTERNAL_1f8a2d2c_10_topo_lb_cu_297024296thrust3seqE" from 0x10d to 0x10e (global memory space)
GPGPU-Sim PTX: allocating global region for "_ZN41_INTERNAL_1f8a2d2c_10_topo_lb_cu_297024296thrust6deviceE" from 0x10e to 0x10f (global memory space)
GPGPU-Sim PTX: allocating shared region for "_ZN6thrust8cuda_cub4core5shmemE" from 0x0 to 0x0 (shared memory space)
GPGPU-Sim PTX: instruction assembly for function '_Z10initializeiiPfPiS0_S_PbS1_'...   done.
GPGPU-Sim PTX: Warning -- ignoring pragma 'nounroll'
GPGPU-Sim PTX: instruction assembly for function '_Z12forward_baseiPKmPKiPiS3_iPbS4_'...   done.
GPGPU-Sim PTX: allocating shared region for "_ZZ10forward_lbiPKmPKiPiS3_iPbS4_E12temp_storage" from 0x0 to 0x4a0 (shared memory space)
GPGPU-Sim PTX: allocating shared region for "_ZZ10forward_lbiPKmPKiPiS3_iPbS4_E14gather_offsets" from 0x500 to 0x900 (shared memory space)
GPGPU-Sim PTX: allocating shared region for "_ZZ10forward_lbiPKmPKiPiS3_iPbS4_E6srcsrc" from 0x900 to 0xd00 (shared memory space)
GPGPU-Sim PTX: allocating shared region for "_ZZ10forward_lbiPKmPKiPiS3_iPbS4_E6values" from 0xd00 to 0x1100 (shared memory space)
GPGPU-Sim PTX: instruction assembly for function '_Z10forward_lbiPKmPKiPiS3_iPbS4_'...   done.
GPGPU-Sim PTX: Warning -- ignoring pragma 'nounroll'
GPGPU-Sim PTX: instruction assembly for function '_Z12reverse_baseiPKmPKiiPiPfS3_S3_iS4_'...   done.
GPGPU-Sim PTX: allocating shared region for "_ZZ18reverse_expand_ctaiPKmPKiiPiPfS2_S3_iS4_E12temp_storage" from 0x0 to 0x2c (shared memory space)
GPGPU-Sim PTX: allocating shared region for "_ZZ18reverse_expand_ctaiPKmPKiiPiPfS2_S3_iS4_E5owner" from 0x2c to 0x30 (shared memory space)
GPGPU-Sim PTX: allocating shared region for "_ZZ18reverse_expand_ctaiPKmPKiiPiPfS2_S3_iS4_E6sh_src" from 0x30 to 0x34 (shared memory space)
GPGPU-Sim PTX: allocating shared region for "_ZZ10reverse_lbiPKmPKiiPiPfS2_S3_iS4_E12temp_storage" from 0x80 to 0x520 (shared memory space)
GPGPU-Sim PTX: allocating shared region for "_ZZ10reverse_lbiPKmPKiiPiPfS2_S3_iS4_E14gather_offsets" from 0x580 to 0x980 (shared memory space)
GPGPU-Sim PTX: allocating shared region for "_ZZ10reverse_lbiPKmPKiiPiPfS2_S3_iS4_E3idx" from 0x980 to 0xd80 (shared memory space)
GPGPU-Sim PTX: allocating shared region for "_ZZ10reverse_lbiPKmPKiiPiPfS2_S3_iS4_E9sh_counts" from 0xd80 to 0x1180 (shared memory space)
GPGPU-Sim PTX: allocating shared region for "_ZZ10reverse_lbiPKmPKiiPiPfS2_S3_iS4_E9sh_deltas" from 0x1180 to 0x1580 (shared memory space)
GPGPU-Sim PTX: instruction assembly for function '_Z10reverse_lbiPKmPKiiPiPfS2_S3_iS4_'...   done.
GPGPU-Sim PTX: allocating shared region for "_ZZ12reverse_warpiPKmPKiiPiPfS3_S3_iS4_E4ptrs" from 0x0 to 0x40 (shared memory space)
GPGPU-Sim PTX: allocating shared region for "_ZZ12reverse_warpiPKmPKiiPiPfS3_S3_iS4_E5sdata" from 0x80 to 0x4c0 (shared memory space)
GPGPU-Sim PTX: instruction assembly for function '_Z12reverse_warpiPKmPKiiPiPfS3_S3_iS4_'...   done.
GPGPU-Sim PTX: instruction assembly for function '_Z6updateiPbPiS0_S0_iS_'...   done.
GPGPU-Sim PTX: instruction assembly for function '_Z12bc_normalizeiPff'...   done.
GPGPU-Sim PTX: instruction assembly for function '_ZN3cub11EmptyKernelIvEEvv'...   done.
GPGPU-Sim PTX: Warning -- ignoring pragma 'nounroll'
GPGPU-Sim PTX: Warning -- ignoring pragma 'nounroll'
GPGPU-Sim PTX: instruction assembly for function '_ZN6thrust8cuda_cub4core13_kernel_agentINS0_8__reduce11ReduceAgentINS_12zip_iteratorINS_5tupleIPfNS0_19counting_iterator_tIlEENS_9null_typeESA_SA_SA_SA_SA_SA_SA_EEEEPNS6_IflSA_SA_SA_SA_SA_SA_SA_SA_EESD_iNS0_9__extrema9arg_max_fIflNS_4lessIfEEEEEESC_SE_iSJ_EEvT0_T1_T2_T3_'...   done.
GPGPU-Sim PTX: Warning -- ignoring pragma 'nounroll'
GPGPU-Sim PTX: Warning -- ignoring pragma 'nounroll'
GPGPU-Sim PTX: instruction assembly for function '_ZN6thrust8cuda_cub4core13_kernel_agentINS0_8__reduce11ReduceAgentINS_12zip_iteratorINS_5tupleIPfNS0_19counting_iterator_tIlEENS_9null_typeESA_SA_SA_SA_SA_SA_SA_EEEEPNS6_IflSA_SA_SA_SA_SA_SA_SA_SA_EESD_iNS0_9__extrema9arg_max_fIflNS_4lessIfEEEEEESC_SE_iN3cub13GridEvenShareIiEENSL_9GridQueueIjEESJ_EEvT0_T1_T2_T3_T4_T5_'...   done.
GPGPU-Sim PTX: instruction assembly for function '_ZN6thrust8cuda_cub4core13_kernel_agentINS0_8__reduce10DrainAgentIiEEN3cub9GridQueueIjEEiEEvT0_T1_'...   done.
GPGPU-Sim PTX: Warning -- ignoring pragma 'nounroll'
GPGPU-Sim PTX: Warning -- ignoring pragma 'nounroll'
GPGPU-Sim PTX: instruction assembly for function '_ZN6thrust8cuda_cub4core13_kernel_agentINS0_8__reduce11ReduceAgentIPNS_5tupleIflNS_9null_typeES6_S6_S6_S6_S6_S6_S6_EES8_S7_iNS0_9__extrema9arg_max_fIflNS_4lessIfEEEEEES8_S8_iSD_EEvT0_T1_T2_T3_'...   done.
GPGPU-Sim PTX: Warning -- ignoring pragma 'nounroll'
GPGPU-Sim PTX: Warning -- ignoring pragma 'nounroll'
GPGPU-Sim PTX: instruction assembly for function '_ZN6thrust8cuda_cub4core13_kernel_agentINS0_8__reduce11ReduceAgentINS_12zip_iteratorINS_5tupleIPfNS0_19counting_iterator_tIlEENS_9null_typeESA_SA_SA_SA_SA_SA_SA_EEEEPNS6_IflSA_SA_SA_SA_SA_SA_SA_SA_EESD_lNS0_9__extrema9arg_max_fIflNS_4lessIfEEEEEESC_SE_lSJ_EEvT0_T1_T2_T3_'...   done.
GPGPU-Sim PTX: Warning -- ignoring pragma 'nounroll'
GPGPU-Sim PTX: Warning -- ignoring pragma 'nounroll'
GPGPU-Sim PTX: instruction assembly for function '_ZN6thrust8cuda_cub4core13_kernel_agentINS0_8__reduce11ReduceAgentINS_12zip_iteratorINS_5tupleIPfNS0_19counting_iterator_tIlEENS_9null_typeESA_SA_SA_SA_SA_SA_SA_EEEEPNS6_IflSA_SA_SA_SA_SA_SA_SA_SA_EESD_lNS0_9__extrema9arg_max_fIflNS_4lessIfEEEEEESC_SE_lN3cub13GridEvenShareIlEENSL_9GridQueueIyEESJ_EEvT0_T1_T2_T3_T4_T5_'...   done.
GPGPU-Sim PTX: instruction assembly for function '_ZN6thrust8cuda_cub4core13_kernel_agentINS0_8__reduce10DrainAgentIlEEN3cub9GridQueueIyEElEEvT0_T1_'...   done.
GPGPU-Sim PTX: Warning -- ignoring pragma 'nounroll'
GPGPU-Sim PTX: Warning -- ignoring pragma 'nounroll'
GPGPU-Sim PTX: instruction assembly for function '_ZN6thrust8cuda_cub4core13_kernel_agentINS0_8__reduce11ReduceAgentIPNS_5tupleIflNS_9null_typeES6_S6_S6_S6_S6_S6_S6_EES8_S7_lNS0_9__extrema9arg_max_fIflNS_4lessIfEEEEEES8_S8_iSD_EEvT0_T1_T2_T3_'...   done.
GPGPU-Sim PTX: instruction assembly for function '_ZN6thrust8cuda_cub4core13_kernel_agentINS0_14__parallel_for16ParallelForAgentINS0_10for_each_fINS_7pointerINS_5tupleIflNS_9null_typeES8_S8_S8_S8_S8_S8_S8_EENS0_5par_tENS_11use_defaultESB_EENS_6detail16wrapped_functionINSD_23allocator_traits_detail5gozerEvEEEElEESI_lEEvT0_T1_'...   done.
GPGPU-Sim PTX: instruction assembly for function '_ZN6thrust8cuda_cub4core13_kernel_agentINS0_14__parallel_for16ParallelForAgentINS0_20__uninitialized_copy7functorIPNS_5tupleIflNS_9null_typeES8_S8_S8_S8_S8_S8_S8_EENS_7pointerIS9_NS0_5par_tENS_11use_defaultESD_EEEElEESF_lEEvT0_T1_'...   done.
GPGPU-Sim PTX: instruction assembly for function '_ZN6thrust8cuda_cub4core13_kernel_agentINS0_14__parallel_for16ParallelForAgentINS0_11__transform17unary_transform_fIPNS_5tupleIflNS_9null_typeES8_S8_S8_S8_S8_S8_S8_EESA_NS5_14no_stencil_tagENS_8identityIS9_EENS5_21always_true_predicateEEElEESF_lEEvT0_T1_'...   done.
GPGPU-Sim PTX: finished parsing EMBEDDED .ptx file bc_topo_lb.1.sm_75.ptx
GPGPU-Sim PTX: loading globals with explicit initializers... 
GPGPU-Sim PTX: finished loading globals (0 bytes total).
GPGPU-Sim PTX: loading constants with explicit initializers...  done.
GPGPU-Sim PTX: Loading PTXInfo from bc_topo_lb.1.sm_75.ptx
GPGPU-Sim PTX: Kernel '_ZN6thrust8cuda_cub4core13_kernel_agentINS0_14__parallel_for16ParallelForAgentINS0_11__transform17unary_transform_fIPNS_5tupleIflNS_9null_typeES8_S8_S8_S8_S8_S8_S8_EESA_NS5_14no_stencil_tagENS_8identityIS9_EENS5_21always_true_predicateEEElEESF_lEEvT0_T1_' : regs=14, lmem=0, smem=0, cmem=384
GPGPU-Sim PTX: Kernel '_ZN6thrust8cuda_cub4core13_kernel_agentINS0_14__parallel_for16ParallelForAgentINS0_20__uninitialized_copy7functorIPNS_5tupleIflNS_9null_typeES8_S8_S8_S8_S8_S8_S8_EENS_7pointerIS9_NS0_5par_tENS_11use_defaultESD_EEEElEESF_lEEvT0_T1_' : regs=16, lmem=0, smem=0, cmem=376
GPGPU-Sim PTX: Kernel '_ZN6thrust8cuda_cub4core13_kernel_agentINS0_14__parallel_for16ParallelForAgentINS0_10for_each_fINS_7pointerINS_5tupleIflNS_9null_typeES8_S8_S8_S8_S8_S8_S8_EENS0_5par_tENS_11use_defaultESB_EENS_6detail16wrapped_functionINSD_23allocator_traits_detail5gozerEvEEEElEESI_lEEvT0_T1_' : regs=4, lmem=0, smem=0, cmem=376
GPGPU-Sim PTX: Kernel '_ZN6thrust8cuda_cub4core13_kernel_agentINS0_8__reduce11ReduceAgentIPNS_5tupleIflNS_9null_typeES6_S6_S6_S6_S6_S6_S6_EES8_S7_lNS0_9__extrema9arg_max_fIflNS_4lessIfEEEEEES8_S8_iSD_EEvT0_T1_T2_T3_' : regs=34, lmem=0, smem=0, cmem=373
GPGPU-Sim PTX: Kernel '_ZN6thrust8cuda_cub4core13_kernel_agentINS0_8__reduce10DrainAgentIlEEN3cub9GridQueueIyEElEEvT0_T1_' : regs=6, lmem=0, smem=0, cmem=368
GPGPU-Sim PTX: Kernel '_ZN6thrust8cuda_cub4core13_kernel_agentINS0_8__reduce11ReduceAgentINS_12zip_iteratorINS_5tupleIPfNS0_19counting_iterator_tIlEENS_9null_typeESA_SA_SA_SA_SA_SA_SA_EEEEPNS6_IflSA_SA_SA_SA_SA_SA_SA_SA_EESD_lNS0_9__extrema9arg_max_fIflNS_4lessIfEEEEEESC_SE_lN3cub13GridEvenShareIlEENSL_9GridQueueIyEESJ_EEvT0_T1_T2_T3_T4_T5_' : regs=32, lmem=0, smem=0, cmem=465
GPGPU-Sim PTX: Kernel '_ZN6thrust8cuda_cub4core13_kernel_agentINS0_8__reduce11ReduceAgentINS_12zip_iteratorINS_5tupleIPfNS0_19counting_iterator_tIlEENS_9null_typeESA_SA_SA_SA_SA_SA_SA_EEEEPNS6_IflSA_SA_SA_SA_SA_SA_SA_SA_EESD_lNS0_9__extrema9arg_max_fIflNS_4lessIfEEEEEESC_SE_lSJ_EEvT0_T1_T2_T3_' : regs=32, lmem=0, smem=0, cmem=385
GPGPU-Sim PTX: Kernel '_ZN6thrust8cuda_cub4core13_kernel_agentINS0_8__reduce11ReduceAgentIPNS_5tupleIflNS_9null_typeES6_S6_S6_S6_S6_S6_S6_EES8_S7_iNS0_9__extrema9arg_max_fIflNS_4lessIfEEEEEES8_S8_iSD_EEvT0_T1_T2_T3_' : regs=34, lmem=0, smem=0, cmem=373
GPGPU-Sim PTX: Kernel '_ZN6thrust8cuda_cub4core13_kernel_agentINS0_8__reduce10DrainAgentIiEEN3cub9GridQueueIjEEiEEvT0_T1_' : regs=4, lmem=0, smem=0, cmem=364
GPGPU-Sim PTX: Kernel '_ZN6thrust8cuda_cub4core13_kernel_agentINS0_8__reduce11ReduceAgentINS_12zip_iteratorINS_5tupleIPfNS0_19counting_iterator_tIlEENS_9null_typeESA_SA_SA_SA_SA_SA_SA_EEEEPNS6_IflSA_SA_SA_SA_SA_SA_SA_SA_EESD_iNS0_9__extrema9arg_max_fIflNS_4lessIfEEEEEESC_SE_iN3cub13GridEvenShareIiEENSL_9GridQueueIjEESJ_EEvT0_T1_T2_T3_T4_T5_' : regs=32, lmem=0, smem=0, cmem=433
GPGPU-Sim PTX: Kernel '_ZN6thrust8cuda_cub4core13_kernel_agentINS0_8__reduce11ReduceAgentINS_12zip_iteratorINS_5tupleIPfNS0_19counting_iterator_tIlEENS_9null_typeESA_SA_SA_SA_SA_SA_SA_EEEEPNS6_IflSA_SA_SA_SA_SA_SA_SA_SA_EESD_iNS0_9__extrema9arg_max_fIflNS_4lessIfEEEEEESC_SE_iSJ_EEvT0_T1_T2_T3_' : regs=32, lmem=0, smem=0, cmem=381
GPGPU-Sim PTX: Kernel '_ZN3cub11EmptyKernelIvEEvv' : regs=4, lmem=0, smem=0, cmem=352
GPGPU-Sim PTX: Kernel '_Z12bc_normalizeiPff' : regs=16, lmem=0, smem=0, cmem=372
GPGPU-Sim PTX: Kernel '_Z6updateiPbPiS0_S0_iS_' : regs=14, lmem=0, smem=0, cmem=408
GPGPU-Sim PTX: Kernel '_Z12reverse_warpiPKmPKiiPiPfS3_S3_iS4_' : regs=31, lmem=0, smem=1152, cmem=432
GPGPU-Sim PTX: Kernel '_Z10reverse_lbiPKmPKiiPiPfS2_S3_iS4_' : regs=28, lmem=0, smem=5344, cmem=432
GPGPU-Sim PTX: Kernel '_Z12reverse_baseiPKmPKiiPiPfS3_S3_iS4_' : regs=27, lmem=0, smem=0, cmem=432
GPGPU-Sim PTX: Kernel '_Z10forward_lbiPKmPKiPiS3_iPbS4_' : regs=26, lmem=0, smem=4256, cmem=416
GPGPU-Sim PTX: Kernel '_Z12forward_baseiPKmPKiPiS3_iPbS4_' : regs=18, lmem=0, smem=0, cmem=416
GPGPU-Sim PTX: Kernel '_Z10initializeiiPfPiS0_S_PbS1_' : regs=18, lmem=0, smem=0, cmem=408
GPGPU-Sim PTX: __cudaRegisterFunction _ZN6thrust8cuda_cub4core13_kernel_agentINS0_14__parallel_for16ParallelForAgentINS0_20__uninitialized_copy7functorIPNS_5tupleIflNS_9null_typeES8_S8_S8_S8_S8_S8_S8_EENS_7pointerIS9_NS0_5par_tENS_11use_defaultESD_EEEElEESF_lEEvT0_T1_ : hostFun 0x0x562df0d3cce3, fat_cubin_handle = 1
GPGPU-Sim PTX: __cudaRegisterFunction _ZN6thrust8cuda_cub4core13_kernel_agentINS0_14__parallel_for16ParallelForAgentINS0_10for_each_fINS_7pointerINS_5tupleIflNS_9null_typeES8_S8_S8_S8_S8_S8_S8_EENS0_5par_tENS_11use_defaultESB_EENS_6detail16wrapped_functionINSD_23allocator_traits_detail5gozerEvEEEElEESI_lEEvT0_T1_ : hostFun 0x0x562df0d3ccb6, fat_cubin_handle = 1
GPGPU-Sim PTX: __cudaRegisterFunction _ZN6thrust8cuda_cub4core13_kernel_agentINS0_8__reduce11ReduceAgentIPNS_5tupleIflNS_9null_typeES6_S6_S6_S6_S6_S6_S6_EES8_S7_lNS0_9__extrema9arg_max_fIflNS_4lessIfEEEEEES8_S8_iSD_EEvT0_T1_T2_T3_ : hostFun 0x0x562df0d3cc88, fat_cubin_handle = 1
GPGPU-Sim PTX: __cudaRegisterFunction _ZN6thrust8cuda_cub4core13_kernel_agentINS0_8__reduce10DrainAgentIlEEN3cub9GridQueueIyEElEEvT0_T1_ : hostFun 0x0x562df0d3cc62, fat_cubin_handle = 1
GPGPU-Sim PTX: __cudaRegisterFunction _ZN6thrust8cuda_cub4core13_kernel_agentINS0_8__reduce11ReduceAgentINS_12zip_iteratorINS_5tupleIPfNS0_19counting_iterator_tIlEENS_9null_typeESA_SA_SA_SA_SA_SA_SA_EEEEPNS6_IflSA_SA_SA_SA_SA_SA_SA_SA_EESD_lNS0_9__extrema9arg_max_fIflNS_4lessIfEEEEEESC_SE_lN3cub13GridEvenShareIlEENSL_9GridQueueIyEESJ_EEvT0_T1_T2_T3_T4_T5_ : hostFun 0x0x562df0d3cc0e, fat_cubin_handle = 1
GPGPU-Sim PTX: __cudaRegisterFunction _ZN6thrust8cuda_cub4core13_kernel_agentINS0_8__reduce11ReduceAgentINS_12zip_iteratorINS_5tupleIPfNS0_19counting_iterator_tIlEENS_9null_typeESA_SA_SA_SA_SA_SA_SA_EEEEPNS6_IflSA_SA_SA_SA_SA_SA_SA_SA_EESD_lNS0_9__extrema9arg_max_fIflNS_4lessIfEEEEEESC_SE_lSJ_EEvT0_T1_T2_T3_ : hostFun 0x0x562df0d3cbcc, fat_cubin_handle = 1
GPGPU-Sim PTX: __cudaRegisterFunction _ZN6thrust8cuda_cub4core13_kernel_agentINS0_8__reduce11ReduceAgentIPNS_5tupleIflNS_9null_typeES6_S6_S6_S6_S6_S6_S6_EES8_S7_iNS0_9__extrema9arg_max_fIflNS_4lessIfEEEEEES8_S8_iSD_EEvT0_T1_T2_T3_ : hostFun 0x0x562df0d3cb9e, fat_cubin_handle = 1
GPGPU-Sim PTX: __cudaRegisterFunction _ZN6thrust8cuda_cub4core13_kernel_agentINS0_8__reduce10DrainAgentIiEEN3cub9GridQueueIjEEiEEvT0_T1_ : hostFun 0x0x562df0d3cb79, fat_cubin_handle = 1
GPGPU-Sim PTX: __cudaRegisterFunction _ZN6thrust8cuda_cub4core13_kernel_agentINS0_8__reduce11ReduceAgentINS_12zip_iteratorINS_5tupleIPfNS0_19counting_iterator_tIlEENS_9null_typeESA_SA_SA_SA_SA_SA_SA_EEEEPNS6_IflSA_SA_SA_SA_SA_SA_SA_SA_EESD_iNS0_9__extrema9arg_max_fIflNS_4lessIfEEEEEESC_SE_iN3cub13GridEvenShareIiEENSL_9GridQueueIjEESJ_EEvT0_T1_T2_T3_T4_T5_ : hostFun 0x0x562df0d3cb26, fat_cubin_handle = 1
GPGPU-Sim PTX: __cudaRegisterFunction _ZN6thrust8cuda_cub4core13_kernel_agentINS0_8__reduce11ReduceAgentINS_12zip_iteratorINS_5tupleIPfNS0_19counting_iterator_tIlEENS_9null_typeESA_SA_SA_SA_SA_SA_SA_EEEEPNS6_IflSA_SA_SA_SA_SA_SA_SA_SA_EESD_iNS0_9__extrema9arg_max_fIflNS_4lessIfEEEEEESC_SE_iSJ_EEvT0_T1_T2_T3_ : hostFun 0x0x562df0d3cae5, fat_cubin_handle = 1
GPGPU-Sim PTX: __cudaRegisterFunction _ZN3cub11EmptyKernelIvEEvv : hostFun 0x0x562df0d3c7f0, fat_cubin_handle = 1
GPGPU-Sim PTX: __cudaRegisterFunction _Z12bc_normalizeiPff : hostFun 0x0x562df0d38d82, fat_cubin_handle = 1
GPGPU-Sim PTX: __cudaRegisterFunction _Z6updateiPbPiS0_S0_iS_ : hostFun 0x0x562df0d38bda, fat_cubin_handle = 1
GPGPU-Sim PTX: __cudaRegisterFunction _Z12reverse_warpiPKmPKiiPiPfS3_S3_iS4_ : hostFun 0x0x562df0d389be, fat_cubin_handle = 1
GPGPU-Sim PTX: __cudaRegisterFunction _Z10reverse_lbiPKmPKiiPiPfS2_S3_iS4_ : hostFun 0x0x562df0d386f1, fat_cubin_handle = 1
GPGPU-Sim PTX: __cudaRegisterFunction _Z12reverse_baseiPKmPKiiPiPfS3_S3_iS4_ : hostFun 0x0x562df0d38424, fat_cubin_handle = 1
GPGPU-Sim PTX: __cudaRegisterFunction _Z10forward_lbiPKmPKiPiS3_iPbS4_ : hostFun 0x0x562df0d38156, fat_cubin_handle = 1
GPGPU-Sim PTX: __cudaRegisterFunction _Z12forward_baseiPKmPKiPiS3_iPbS4_ : hostFun 0x0x562df0d37f07, fat_cubin_handle = 1
GPGPU-Sim PTX: __cudaRegisterFunction _Z10initializeiiPfPiS0_S_PbS1_ : hostFun 0x0x562df0d37cba, fat_cubin_handle = 1
GPGPU-Sim PTX: __cudaRegisterVar: hostVar = 0x562df0d527c1; deviceAddress = _ZN41_INTERNAL_1f8a2d2c_10_topo_lb_cu_297024296thrust6system6detail10sequential3seqE; deviceName = _ZN41_INTERNAL_1f8a2d2c_10_topo_lb_cu_297024296thrust6system6detail10sequential3seqE
GPGPU-Sim PTX: __cudaRegisterVar: Registering const memory space of 1 bytes
GPGPU-Sim PTX registering global _ZN41_INTERNAL_1f8a2d2c_10_topo_lb_cu_297024296thrust6system6detail10sequential3seqE hostVar to name mapping
GPGPU-Sim PTX: __cudaRegisterVar: hostVar = 0x562df0d52955; deviceAddress = _ZN41_INTERNAL_1f8a2d2c_10_topo_lb_cu_297024296thrust6system3cpp3parE; deviceName = _ZN41_INTERNAL_1f8a2d2c_10_topo_lb_cu_297024296thrust6system3cpp3parE
GPGPU-Sim PTX: __cudaRegisterVar: Registering const memory space of 1 bytes
GPGPU-Sim PTX registering global _ZN41_INTERNAL_1f8a2d2c_10_topo_lb_cu_297024296thrust6system3cpp3parE hostVar to name mapping
GPGPU-Sim PTX: __cudaRegisterVar: hostVar = 0x562df0d52956; deviceAddress = _ZN41_INTERNAL_1f8a2d2c_10_topo_lb_cu_297024296thrust8cuda_cub3parE; deviceName = _ZN41_INTERNAL_1f8a2d2c_10_topo_lb_cu_297024296thrust8cuda_cub3parE
GPGPU-Sim PTX: __cudaRegisterVar: Registering const memory space of 1 bytes
GPGPU-Sim PTX registering global _ZN41_INTERNAL_1f8a2d2c_10_topo_lb_cu_297024296thrust8cuda_cub3parE hostVar to name mapping
GPGPU-Sim PTX: __cudaRegisterVar: hostVar = 0x562df0d528fc; deviceAddress = _ZN41_INTERNAL_1f8a2d2c_10_topo_lb_cu_297024296thrust12placeholders2_1E; deviceName = _ZN41_INTERNAL_1f8a2d2c_10_topo_lb_cu_297024296thrust12placeholders2_1E
GPGPU-Sim PTX: __cudaRegisterVar: Registering const memory space of 1 bytes
GPGPU-Sim PTX registering global _ZN41_INTERNAL_1f8a2d2c_10_topo_lb_cu_297024296thrust12placeholders2_1E hostVar to name mapping
GPGPU-Sim PTX: __cudaRegisterVar: hostVar = 0x562df0d528fd; deviceAddress = _ZN41_INTERNAL_1f8a2d2c_10_topo_lb_cu_297024296thrust12placeholders2_2E; deviceName = _ZN41_INTERNAL_1f8a2d2c_10_topo_lb_cu_297024296thrust12placeholders2_2E
GPGPU-Sim PTX: __cudaRegisterVar: Registering const memory space of 1 bytes
GPGPU-Sim PTX registering global _ZN41_INTERNAL_1f8a2d2c_10_topo_lb_cu_297024296thrust12placeholders2_2E hostVar to name mapping
GPGPU-Sim PTX: __cudaRegisterVar: hostVar = 0x562df0d528fe; deviceAddress = _ZN41_INTERNAL_1f8a2d2c_10_topo_lb_cu_297024296thrust12placeholders2_3E; deviceName = _ZN41_INTERNAL_1f8a2d2c_10_topo_lb_cu_297024296thrust12placeholders2_3E
GPGPU-Sim PTX: __cudaRegisterVar: Registering const memory space of 1 bytes
GPGPU-Sim PTX registering global _ZN41_INTERNAL_1f8a2d2c_10_topo_lb_cu_297024296thrust12placeholders2_3E hostVar to name mapping
GPGPU-Sim PTX: __cudaRegisterVar: hostVar = 0x562df0d528ff; deviceAddress = _ZN41_INTERNAL_1f8a2d2c_10_topo_lb_cu_297024296thrust12placeholders2_4E; deviceName = _ZN41_INTERNAL_1f8a2d2c_10_topo_lb_cu_297024296thrust12placeholders2_4E
GPGPU-Sim PTX: __cudaRegisterVar: Registering const memory space of 1 bytes
GPGPU-Sim PTX registering global _ZN41_INTERNAL_1f8a2d2c_10_topo_lb_cu_297024296thrust12placeholders2_4E hostVar to name mapping
GPGPU-Sim PTX: __cudaRegisterVar: hostVar = 0x562df0d52900; deviceAddress = _ZN41_INTERNAL_1f8a2d2c_10_topo_lb_cu_297024296thrust12placeholders2_5E; deviceName = _ZN41_INTERNAL_1f8a2d2c_10_topo_lb_cu_297024296thrust12placeholders2_5E
GPGPU-Sim PTX: __cudaRegisterVar: Registering const memory space of 1 bytes
GPGPU-Sim PTX registering global _ZN41_INTERNAL_1f8a2d2c_10_topo_lb_cu_297024296thrust12placeholders2_5E hostVar to name mapping
GPGPU-Sim PTX: __cudaRegisterVar: hostVar = 0x562df0d52901; deviceAddress = _ZN41_INTERNAL_1f8a2d2c_10_topo_lb_cu_297024296thrust12placeholders2_6E; deviceName = _ZN41_INTERNAL_1f8a2d2c_10_topo_lb_cu_297024296thrust12placeholders2_6E
GPGPU-Sim PTX: __cudaRegisterVar: Registering const memory space of 1 bytes
GPGPU-Sim PTX registering global _ZN41_INTERNAL_1f8a2d2c_10_topo_lb_cu_297024296thrust12placeholders2_6E hostVar to name mapping
GPGPU-Sim PTX: __cudaRegisterVar: hostVar = 0x562df0d52902; deviceAddress = _ZN41_INTERNAL_1f8a2d2c_10_topo_lb_cu_297024296thrust12placeholders2_7E; deviceName = _ZN41_INTERNAL_1f8a2d2c_10_topo_lb_cu_297024296thrust12placeholders2_7E
GPGPU-Sim PTX: __cudaRegisterVar: Registering const memory space of 1 bytes
GPGPU-Sim PTX registering global _ZN41_INTERNAL_1f8a2d2c_10_topo_lb_cu_297024296thrust12placeholders2_7E hostVar to name mapping
GPGPU-Sim PTX: __cudaRegisterVar: hostVar = 0x562df0d52903; deviceAddress = _ZN41_INTERNAL_1f8a2d2c_10_topo_lb_cu_297024296thrust12placeholders2_8E; deviceName = _ZN41_INTERNAL_1f8a2d2c_10_topo_lb_cu_297024296thrust12placeholders2_8E
GPGPU-Sim PTX: __cudaRegisterVar: Registering const memory space of 1 bytes
GPGPU-Sim PTX registering global _ZN41_INTERNAL_1f8a2d2c_10_topo_lb_cu_297024296thrust12placeholders2_8E hostVar to name mapping
GPGPU-Sim PTX: __cudaRegisterVar: hostVar = 0x562df0d52904; deviceAddress = _ZN41_INTERNAL_1f8a2d2c_10_topo_lb_cu_297024296thrust12placeholders2_9E; deviceName = _ZN41_INTERNAL_1f8a2d2c_10_topo_lb_cu_297024296thrust12placeholders2_9E
GPGPU-Sim PTX: __cudaRegisterVar: Registering const memory space of 1 bytes
GPGPU-Sim PTX registering global _ZN41_INTERNAL_1f8a2d2c_10_topo_lb_cu_297024296thrust12placeholders2_9E hostVar to name mapping
GPGPU-Sim PTX: __cudaRegisterVar: hostVar = 0x562df0d52905; deviceAddress = _ZN41_INTERNAL_1f8a2d2c_10_topo_lb_cu_297024296thrust12placeholders3_10E; deviceName = _ZN41_INTERNAL_1f8a2d2c_10_topo_lb_cu_297024296thrust12placeholders3_10E
GPGPU-Sim PTX: __cudaRegisterVar: Registering const memory space of 1 bytes
GPGPU-Sim PTX registering global _ZN41_INTERNAL_1f8a2d2c_10_topo_lb_cu_297024296thrust12placeholders3_10E hostVar to name mapping
GPGPU-Sim PTX: __cudaRegisterVar: hostVar = 0x562df0d52954; deviceAddress = _ZN41_INTERNAL_1f8a2d2c_10_topo_lb_cu_297024296thrust3seqE; deviceName = _ZN41_INTERNAL_1f8a2d2c_10_topo_lb_cu_297024296thrust3seqE
GPGPU-Sim PTX: __cudaRegisterVar: Registering const memory space of 1 bytes
GPGPU-Sim PTX registering global _ZN41_INTERNAL_1f8a2d2c_10_topo_lb_cu_297024296thrust3seqE hostVar to name mapping
GPGPU-Sim PTX: __cudaRegisterVar: hostVar = 0x562df0d52958; deviceAddress = _ZN41_INTERNAL_1f8a2d2c_10_topo_lb_cu_297024296thrust6deviceE; deviceName = _ZN41_INTERNAL_1f8a2d2c_10_topo_lb_cu_297024296thrust6deviceE
GPGPU-Sim PTX: __cudaRegisterVar: Registering const memory space of 1 bytes
GPGPU-Sim PTX registering global _ZN41_INTERNAL_1f8a2d2c_10_topo_lb_cu_297024296thrust6deviceE hostVar to name mapping
Betweenness Centrality by Xuhao Chen
Reading (.mtx) input file ../CudaBenchmarks/gardenia/datasets/soc-LiveJournal1.mtx
Removing redundent edges... 0 redundent edges are removed
|V| 4847571 |E| 68475391
GPGPU-Sim PTX: Setting up arguments for 4 bytes starting at 0x7ffd3a08d89c..
GPGPU-Sim PTX: Setting up arguments for 4 bytes starting at 0x7ffd3a08d898..
GPGPU-Sim PTX: Setting up arguments for 8 bytes starting at 0x7ffd3a08d890..
GPGPU-Sim PTX: Setting up arguments for 8 bytes starting at 0x7ffd3a08d888..
GPGPU-Sim PTX: Setting up arguments for 8 bytes starting at 0x7ffd3a08d880..
GPGPU-Sim PTX: Setting up arguments for 8 bytes starting at 0x7ffd3a08d878..
GPGPU-Sim PTX: Setting up arguments for 8 bytes starting at 0x7ffd3a08d870..
GPGPU-Sim PTX: Setting up arguments for 8 bytes starting at 0x7ffd3a08d868..

GPGPU-Sim PTX: cudaLaunch for 0x0x562df0d37cba (mode=performance simulation) on stream 0
GPGPU-Sim PTX: finding reconvergence points for '_Z10initializeiiPfPiS0_S_PbS1_'...
GPGPU-Sim PTX: Finding dominators for '_Z10initializeiiPfPiS0_S_PbS1_'...
GPGPU-Sim PTX: Finding immediate dominators for '_Z10initializeiiPfPiS0_S_PbS1_'...
GPGPU-Sim PTX: Finding postdominators for '_Z10initializeiiPfPiS0_S_PbS1_'...
GPGPU-Sim PTX: Finding immediate postdominators for '_Z10initializeiiPfPiS0_S_PbS1_'...
GPGPU-Sim PTX: pre-decoding instructions for '_Z10initializeiiPfPiS0_S_PbS1_'...
GPGPU-Sim PTX: reconvergence points for _Z10initializeiiPfPiS0_S_PbS1_...
GPGPU-Sim PTX:  1 (potential) branch divergence @  PC=0x078 (bc_topo_lb.1.sm_75.ptx:77) @%p1 bra $L__BB0_4;

GPGPU-Sim PTX:    immediate post dominator      @  PC=0x188 (bc_topo_lb.1.sm_75.ptx:118) ret;

GPGPU-Sim PTX:  2 (potential) branch divergence @  PC=0x100 (bc_topo_lb.1.sm_75.ptx:95) @%p2 bra $L__BB0_3;

GPGPU-Sim PTX:    immediate post dominator      @  PC=0x188 (bc_topo_lb.1.sm_75.ptx:118) ret;

GPGPU-Sim PTX:  3 (potential) branch divergence @  PC=0x108 (bc_topo_lb.1.sm_75.ptx:96) bra.uni $L__BB0_2;

GPGPU-Sim PTX:    immediate post dominator      @  PC=0x158 (bc_topo_lb.1.sm_75.ptx:110) st.global.u8 [%rd3], %rs1;

GPGPU-Sim PTX:  4 (potential) branch divergence @  PC=0x150 (bc_topo_lb.1.sm_75.ptx:107) bra.uni $L__BB0_4;

GPGPU-Sim PTX:    immediate post dominator      @  PC=0x188 (bc_topo_lb.1.sm_75.ptx:118) ret;

GPGPU-Sim PTX: ... end of reconvergence points for _Z10initializeiiPfPiS0_S_PbS1_
GPGPU-Sim PTX: ... done pre-decoding instructions for '_Z10initializeiiPfPiS0_S_PbS1_'.
GPGPU-Sim PTX: pushing kernel '_Z10initializeiiPfPiS0_S_PbS1_' to stream 0, gridDim= (18936,1,1) blockDim = (256,1,1) 
GPGPU-Sim uArch: Shader 0 bind to kernel 1 '_Z10initializeiiPfPiS0_S_PbS1_'
GPGPU-Sim uArch: CTA/core = 4, limited by: threads
GPGPU-Sim: Reconfigure L1 cache to 64KB
GPGPU-Sim uArch: Shader 1 bind to kernel 1 '_Z10initializeiiPfPiS0_S_PbS1_'
GPGPU-Sim uArch: Shader 2 bind to kernel 1 '_Z10initializeiiPfPiS0_S_PbS1_'
GPGPU-Sim uArch: Shader 3 bind to kernel 1 '_Z10initializeiiPfPiS0_S_PbS1_'
GPGPU-Sim uArch: Shader 4 bind to kernel 1 '_Z10initializeiiPfPiS0_S_PbS1_'
GPGPU-Sim uArch: Shader 5 bind to kernel 1 '_Z10initializeiiPfPiS0_S_PbS1_'
GPGPU-Sim uArch: Shader 6 bind to kernel 1 '_Z10initializeiiPfPiS0_S_PbS1_'
GPGPU-Sim uArch: Shader 7 bind to kernel 1 '_Z10initializeiiPfPiS0_S_PbS1_'
GPGPU-Sim uArch: Shader 8 bind to kernel 1 '_Z10initializeiiPfPiS0_S_PbS1_'
GPGPU-Sim uArch: Shader 9 bind to kernel 1 '_Z10initializeiiPfPiS0_S_PbS1_'
GPGPU-Sim uArch: Shader 10 bind to kernel 1 '_Z10initializeiiPfPiS0_S_PbS1_'
GPGPU-Sim uArch: Shader 11 bind to kernel 1 '_Z10initializeiiPfPiS0_S_PbS1_'
GPGPU-Sim uArch: Shader 12 bind to kernel 1 '_Z10initializeiiPfPiS0_S_PbS1_'
GPGPU-Sim uArch: Shader 13 bind to kernel 1 '_Z10initializeiiPfPiS0_S_PbS1_'
GPGPU-Sim uArch: Shader 14 bind to kernel 1 '_Z10initializeiiPfPiS0_S_PbS1_'
GPGPU-Sim uArch: Shader 15 bind to kernel 1 '_Z10initializeiiPfPiS0_S_PbS1_'
GPGPU-Sim uArch: Shader 16 bind to kernel 1 '_Z10initializeiiPfPiS0_S_PbS1_'
GPGPU-Sim uArch: Shader 17 bind to kernel 1 '_Z10initializeiiPfPiS0_S_PbS1_'
GPGPU-Sim uArch: Shader 18 bind to kernel 1 '_Z10initializeiiPfPiS0_S_PbS1_'
GPGPU-Sim uArch: Shader 19 bind to kernel 1 '_Z10initializeiiPfPiS0_S_PbS1_'
GPGPU-Sim uArch: Shader 20 bind to kernel 1 '_Z10initializeiiPfPiS0_S_PbS1_'
GPGPU-Sim uArch: Shader 21 bind to kernel 1 '_Z10initializeiiPfPiS0_S_PbS1_'
GPGPU-Sim uArch: Shader 22 bind to kernel 1 '_Z10initializeiiPfPiS0_S_PbS1_'
GPGPU-Sim uArch: Shader 23 bind to kernel 1 '_Z10initializeiiPfPiS0_S_PbS1_'
GPGPU-Sim uArch: Shader 24 bind to kernel 1 '_Z10initializeiiPfPiS0_S_PbS1_'
GPGPU-Sim uArch: Shader 25 bind to kernel 1 '_Z10initializeiiPfPiS0_S_PbS1_'
GPGPU-Sim uArch: Shader 26 bind to kernel 1 '_Z10initializeiiPfPiS0_S_PbS1_'
GPGPU-Sim uArch: Shader 27 bind to kernel 1 '_Z10initializeiiPfPiS0_S_PbS1_'
GPGPU-Sim uArch: Shader 28 bind to kernel 1 '_Z10initializeiiPfPiS0_S_PbS1_'
GPGPU-Sim uArch: Shader 29 bind to kernel 1 '_Z10initializeiiPfPiS0_S_PbS1_'
Destroy streams for kernel 1: size 0
kernel_name = _Z10initializeiiPfPiS0_S_PbS1_ 
kernel_launch_uid = 1 
gpu_sim_cycle = 354091
gpu_sim_insn = 189056037
gpu_ipc =     533.9193
gpu_tot_sim_cycle = 354091
gpu_tot_sim_insn = 189056037
gpu_tot_ipc =     533.9193
gpu_tot_issued_cta = 18936
gpu_occupancy = 95.8397% 
gpu_tot_occupancy = 95.8397% 
max_total_param_size = 0
gpu_stall_dramfull = 5497103
gpu_stall_icnt2sh    = 0
partiton_level_parallism =       7.7007
partiton_level_parallism_total  =       7.7007
partiton_level_parallism_util =       7.8658
partiton_level_parallism_util_total  =       7.8658
L2_BW  =     336.3686 GB/Sec
L2_BW_total  =     336.3686 GB/Sec
gpu_total_sim_rate=59339

========= Core cache stats =========
L1I_cache:
	L1I_total_cache_accesses = 0
	L1I_total_cache_misses = 0
	L1I_total_cache_pending_hits = 0
	L1I_total_cache_reservation_fails = 0
L1D_cache:
	L1D_cache_core[0]: Access = 90291, Miss = 90288, Miss_rate = 1.000, Pending_hits = 0, Reservation_fails = 114565
	L1D_cache_core[1]: Access = 91440, Miss = 91440, Miss_rate = 1.000, Pending_hits = 0, Reservation_fails = 114392
	L1D_cache_core[2]: Access = 91562, Miss = 91562, Miss_rate = 1.000, Pending_hits = 0, Reservation_fails = 115595
	L1D_cache_core[3]: Access = 91296, Miss = 91296, Miss_rate = 1.000, Pending_hits = 0, Reservation_fails = 115229
	L1D_cache_core[4]: Access = 87408, Miss = 87408, Miss_rate = 1.000, Pending_hits = 0, Reservation_fails = 112298
	L1D_cache_core[5]: Access = 93456, Miss = 93456, Miss_rate = 1.000, Pending_hits = 0, Reservation_fails = 117530
	L1D_cache_core[6]: Access = 91728, Miss = 91728, Miss_rate = 1.000, Pending_hits = 0, Reservation_fails = 115166
	L1D_cache_core[7]: Access = 91152, Miss = 91152, Miss_rate = 1.000, Pending_hits = 0, Reservation_fails = 114259
	L1D_cache_core[8]: Access = 90288, Miss = 90288, Miss_rate = 1.000, Pending_hits = 0, Reservation_fails = 113187
	L1D_cache_core[9]: Access = 92592, Miss = 92592, Miss_rate = 1.000, Pending_hits = 0, Reservation_fails = 116393
	L1D_cache_core[10]: Access = 91296, Miss = 91296, Miss_rate = 1.000, Pending_hits = 0, Reservation_fails = 114811
	L1D_cache_core[11]: Access = 90864, Miss = 90864, Miss_rate = 1.000, Pending_hits = 0, Reservation_fails = 116596
	L1D_cache_core[12]: Access = 88416, Miss = 88416, Miss_rate = 1.000, Pending_hits = 0, Reservation_fails = 112640
	L1D_cache_core[13]: Access = 91872, Miss = 91872, Miss_rate = 1.000, Pending_hits = 0, Reservation_fails = 115748
	L1D_cache_core[14]: Access = 88128, Miss = 88128, Miss_rate = 1.000, Pending_hits = 0, Reservation_fails = 111800
	L1D_cache_core[15]: Access = 92592, Miss = 92592, Miss_rate = 1.000, Pending_hits = 0, Reservation_fails = 115076
	L1D_cache_core[16]: Access = 92016, Miss = 92016, Miss_rate = 1.000, Pending_hits = 0, Reservation_fails = 117050
	L1D_cache_core[17]: Access = 87984, Miss = 87984, Miss_rate = 1.000, Pending_hits = 0, Reservation_fails = 112522
	L1D_cache_core[18]: Access = 90000, Miss = 90000, Miss_rate = 1.000, Pending_hits = 0, Reservation_fails = 113404
	L1D_cache_core[19]: Access = 90864, Miss = 90864, Miss_rate = 1.000, Pending_hits = 0, Reservation_fails = 115383
	L1D_cache_core[20]: Access = 91728, Miss = 91728, Miss_rate = 1.000, Pending_hits = 0, Reservation_fails = 116738
	L1D_cache_core[21]: Access = 92016, Miss = 92016, Miss_rate = 1.000, Pending_hits = 0, Reservation_fails = 115222
	L1D_cache_core[22]: Access = 92880, Miss = 92880, Miss_rate = 1.000, Pending_hits = 0, Reservation_fails = 116970
	L1D_cache_core[23]: Access = 89280, Miss = 89280, Miss_rate = 1.000, Pending_hits = 0, Reservation_fails = 112880
	L1D_cache_core[24]: Access = 91008, Miss = 91008, Miss_rate = 1.000, Pending_hits = 0, Reservation_fails = 114258
	L1D_cache_core[25]: Access = 89712, Miss = 89712, Miss_rate = 1.000, Pending_hits = 0, Reservation_fails = 112819
	L1D_cache_core[26]: Access = 92304, Miss = 92304, Miss_rate = 1.000, Pending_hits = 0, Reservation_fails = 115404
	L1D_cache_core[27]: Access = 91440, Miss = 91440, Miss_rate = 1.000, Pending_hits = 0, Reservation_fails = 114040
	L1D_cache_core[28]: Access = 87840, Miss = 87840, Miss_rate = 1.000, Pending_hits = 0, Reservation_fails = 111235
	L1D_cache_core[29]: Access = 93312, Miss = 93312, Miss_rate = 1.000, Pending_hits = 0, Reservation_fails = 115893
	L1D_total_cache_accesses = 2726765
	L1D_total_cache_misses = 2726762
	L1D_total_cache_miss_rate = 1.0000
	L1D_total_cache_pending_hits = 0
	L1D_total_cache_reservation_fails = 3439103
	L1D_cache_data_port_util = 0.000
	L1D_cache_fill_port_util = 0.000
L1C_cache:
	L1C_total_cache_accesses = 0
	L1C_total_cache_misses = 0
	L1C_total_cache_pending_hits = 0
	L1C_total_cache_reservation_fails = 0
L1T_cache:
	L1T_total_cache_accesses = 0
	L1T_total_cache_misses = 0
	L1T_total_cache_pending_hits = 0
	L1T_total_cache_reservation_fails = 0

Total_core_cache_stats:
	Total_core_cache_stats_breakdown[GLOBAL_ACC_R][HIT] = 0
	Total_core_cache_stats_breakdown[GLOBAL_ACC_R][HIT_RESERVED] = 0
	Total_core_cache_stats_breakdown[GLOBAL_ACC_R][MISS] = 0
	Total_core_cache_stats_breakdown[GLOBAL_ACC_R][RESERVATION_FAIL] = 0
	Total_core_cache_stats_breakdown[GLOBAL_ACC_R][SECTOR_MISS] = 0
	Total_core_cache_stats_breakdown[GLOBAL_ACC_R][MSHR_HIT] = 0
	Total_core_cache_stats_breakdown[LOCAL_ACC_R][HIT] = 0
	Total_core_cache_stats_breakdown[LOCAL_ACC_R][HIT_RESERVED] = 0
	Total_core_cache_stats_breakdown[LOCAL_ACC_R][MISS] = 0
	Total_core_cache_stats_breakdown[LOCAL_ACC_R][RESERVATION_FAIL] = 0
	Total_core_cache_stats_breakdown[LOCAL_ACC_R][SECTOR_MISS] = 0
	Total_core_cache_stats_breakdown[LOCAL_ACC_R][MSHR_HIT] = 0
	Total_core_cache_stats_breakdown[CONST_ACC_R][HIT] = 0
	Total_core_cache_stats_breakdown[CONST_ACC_R][HIT_RESERVED] = 0
	Total_core_cache_stats_breakdown[CONST_ACC_R][MISS] = 0
	Total_core_cache_stats_breakdown[CONST_ACC_R][RESERVATION_FAIL] = 0
	Total_core_cache_stats_breakdown[CONST_ACC_R][SECTOR_MISS] = 0
	Total_core_cache_stats_breakdown[CONST_ACC_R][MSHR_HIT] = 0
	Total_core_cache_stats_breakdown[TEXTURE_ACC_R][HIT] = 0
	Total_core_cache_stats_breakdown[TEXTURE_ACC_R][HIT_RESERVED] = 0
	Total_core_cache_stats_breakdown[TEXTURE_ACC_R][MISS] = 0
	Total_core_cache_stats_breakdown[TEXTURE_ACC_R][RESERVATION_FAIL] = 0
	Total_core_cache_stats_breakdown[TEXTURE_ACC_R][SECTOR_MISS] = 0
	Total_core_cache_stats_breakdown[TEXTURE_ACC_R][MSHR_HIT] = 0
	Total_core_cache_stats_breakdown[GLOBAL_ACC_W][HIT] = 3
	Total_core_cache_stats_breakdown[GLOBAL_ACC_W][HIT_RESERVED] = 0
	Total_core_cache_stats_breakdown[GLOBAL_ACC_W][MISS] = 681692
	Total_core_cache_stats_breakdown[GLOBAL_ACC_W][RESERVATION_FAIL] = 3439103
	Total_core_cache_stats_breakdown[GLOBAL_ACC_W][SECTOR_MISS] = 2045070
	Total_core_cache_stats_breakdown[GLOBAL_ACC_W][MSHR_HIT] = 0
	Total_core_cache_stats_breakdown[LOCAL_ACC_W][HIT] = 0
	Total_core_cache_stats_breakdown[LOCAL_ACC_W][HIT_RESERVED] = 0
	Total_core_cache_stats_breakdown[LOCAL_ACC_W][MISS] = 0
	Total_core_cache_stats_breakdown[LOCAL_ACC_W][RESERVATION_FAIL] = 0
	Total_core_cache_stats_breakdown[LOCAL_ACC_W][SECTOR_MISS] = 0
	Total_core_cache_stats_breakdown[LOCAL_ACC_W][MSHR_HIT] = 0
	Total_core_cache_stats_breakdown[L1_WRBK_ACC][HIT] = 0
	Total_core_cache_stats_breakdown[L1_WRBK_ACC][HIT_RESERVED] = 0
	Total_core_cache_stats_breakdown[L1_WRBK_ACC][MISS] = 0
	Total_core_cache_stats_breakdown[L1_WRBK_ACC][RESERVATION_FAIL] = 0
	Total_core_cache_stats_breakdown[L1_WRBK_ACC][SECTOR_MISS] = 0
	Total_core_cache_stats_breakdown[L1_WRBK_ACC][MSHR_HIT] = 0
	Total_core_cache_stats_breakdown[L2_WRBK_ACC][HIT] = 0
	Total_core_cache_stats_breakdown[L2_WRBK_ACC][HIT_RESERVED] = 0
	Total_core_cache_stats_breakdown[L2_WRBK_ACC][MISS] = 0
	Total_core_cache_stats_breakdown[L2_WRBK_ACC][RESERVATION_FAIL] = 0
	Total_core_cache_stats_breakdown[L2_WRBK_ACC][SECTOR_MISS] = 0
	Total_core_cache_stats_breakdown[L2_WRBK_ACC][MSHR_HIT] = 0
	Total_core_cache_stats_breakdown[INST_ACC_R][HIT] = 0
	Total_core_cache_stats_breakdown[INST_ACC_R][HIT_RESERVED] = 0
	Total_core_cache_stats_breakdown[INST_ACC_R][MISS] = 0
	Total_core_cache_stats_breakdown[INST_ACC_R][RESERVATION_FAIL] = 0
	Total_core_cache_stats_breakdown[INST_ACC_R][SECTOR_MISS] = 0
	Total_core_cache_stats_breakdown[INST_ACC_R][MSHR_HIT] = 0
	Total_core_cache_stats_breakdown[L1_WR_ALLOC_R][HIT] = 0
	Total_core_cache_stats_breakdown[L1_WR_ALLOC_R][HIT_RESERVED] = 0
	Total_core_cache_stats_breakdown[L1_WR_ALLOC_R][MISS] = 0
	Total_core_cache_stats_breakdown[L1_WR_ALLOC_R][RESERVATION_FAIL] = 0
	Total_core_cache_stats_breakdown[L1_WR_ALLOC_R][SECTOR_MISS] = 0
	Total_core_cache_stats_breakdown[L1_WR_ALLOC_R][MSHR_HIT] = 0
	Total_core_cache_stats_breakdown[L2_WR_ALLOC_R][HIT] = 0
	Total_core_cache_stats_breakdown[L2_WR_ALLOC_R][HIT_RESERVED] = 0
	Total_core_cache_stats_breakdown[L2_WR_ALLOC_R][MISS] = 0
	Total_core_cache_stats_breakdown[L2_WR_ALLOC_R][RESERVATION_FAIL] = 0
	Total_core_cache_stats_breakdown[L2_WR_ALLOC_R][SECTOR_MISS] = 0
	Total_core_cache_stats_breakdown[L2_WR_ALLOC_R][MSHR_HIT] = 0
	Total_core_cache_stats_breakdown[GLOBAL_ACC_W][TOTAL_ACCESS] = 2726765

Total_core_cache_fail_stats:
	Total_core_cache_fail_stats_breakdown[GLOBAL_ACC_W][MISS_QUEUE_FULL] = 3439103
ctas_completed 18936, Shader 0 warp_id issue ditsribution:
warp_id:
0, 1, 2, 3, 4, 5, 6, 7, 8, 9, 10, 11, 12, 13, 14, 15, 16, 17, 18, 19, 20, 21, 22, 23, 24, 25, 26, 27, 28, 29, 30, 31, 
distro:
6446, 6437, 6437, 6437, 6437, 6437, 6437, 6437, 6396, 6396, 6396, 6396, 6396, 6396, 6396, 6396, 6396, 6396, 6396, 6396, 6396, 6396, 6396, 6396, 6478, 6478, 6478, 6478, 6478, 6478, 6478, 6478, 
gpgpu_n_tot_thrd_icount = 198751776
gpgpu_n_tot_w_icount = 6210993
gpgpu_n_stall_shd_mem = 720094
gpgpu_n_mem_read_local = 0
gpgpu_n_mem_write_local = 0
gpgpu_n_mem_read_global = 0
gpgpu_n_mem_write_global = 2726765
gpgpu_n_mem_texture = 0
gpgpu_n_mem_const = 0
gpgpu_n_load_insn  = 0
gpgpu_n_store_insn = 29085426
gpgpu_n_shmem_insn = 0
gpgpu_n_sstarr_insn = 0
gpgpu_n_tex_insn = 0
gpgpu_n_const_mem_insn = 0
gpgpu_n_param_mem_insn = 38780928
gpgpu_n_shmem_bkconflict = 0
gpgpu_n_cache_bkconflict = 0
gpgpu_n_intrawarp_mshr_merge = 0
gpgpu_n_cmem_portconflict = 0
gpgpu_stall_shd_mem[c_mem][resource_stall] = 0
gpgpu_stall_shd_mem[s_mem][bk_conf] = 0
gpgpu_stall_shd_mem[gl_mem][resource_stall] = 720094
gpgpu_stall_shd_mem[gl_mem][coal_stall] = 0
gpgpu_stall_shd_mem[gl_mem][data_port_stall] = 0
gpu_reg_bank_conflict_stalls = 0
Warp Occupancy Distribution:
Stall:6205617	W0_Idle:27176232	W0_Scoreboard:2219998	W1:9	W2:0	W3:0	W4:0	W5:0	W6:0	W7:0	W8:0	W9:0	W10:0	W11:0	W12:0	W13:0	W14:0	W15:0	W16:0	W17:0	W18:0	W19:24	W20:0	W21:0	W22:0	W23:0	W24:0	W25:0	W26:0	W27:0	W28:0	W29:0	W30:0	W31:7	W32:6210953
single_issue_nums: WS0:1552761	WS1:1552752	WS2:1552752	WS3:1552728	
dual_issue_nums: WS0:0	WS1:0	WS2:0	WS3:0	
traffic_breakdown_coretomem[GLOBAL_ACC_W] = 109070600 {40:2726765,}
traffic_breakdown_memtocore[GLOBAL_ACC_W] = 21814120 {8:2726765,}
maxmflatency = 2181 
max_icnt2mem_latency = 1918 
maxmrqlatency = 3251 
max_icnt2sh_latency = 418 
averagemflatency = 1632 
avg_icnt2mem_latency = 1131 
avg_mrq_latency = 397 
avg_icnt2sh_latency = 22 
mrq_lat_table:95504 	1393 	1733 	11651 	16986 	38395 	68817 	92377 	119798 	145421 	61648 	1133 	0 	0 	0 	0 	0 	0 	0 	0 	0 	0 	0 	0 	0 	0 	0 	0 	0 	0 	0 	0 	
dq_lat_table:0 	0 	0 	0 	0 	0 	0 	0 	0 	0 	0 	0 	0 	0 	0 	0 	0 	0 	0 	0 	0 	0 	0 	0 	0 	0 	0 	0 	0 	0 	0 	0 	
mf_lat_table:0 	0 	0 	0 	0 	0 	0 	2958 	73808 	76434 	2572488 	1077 	0 	0 	0 	0 	0 	0 	0 	0 	0 	0 	0 	0 	0 	0 	0 	0 	0 	0 	0 	0 	
icnt2mem_lat_table:0 	0 	0 	0 	0 	12537 	26642 	50387 	57237 	641801 	1938161 	0 	0 	0 	0 	0 	0 	0 	0 	0 	0 	0 	0 	0 	
icnt2sh_lat_table:0 	868714 	507275 	421890 	364923 	302231 	193501 	58997 	9234 	0 	0 	0 	0 	0 	0 	0 	0 	0 	0 	0 	0 	0 	0 	0 	
mf_lat_pw_table:0 	0 	0 	0 	0 	0 	0 	0 	8 	6 	335 	0 	0 	0 	0 	0 	0 	0 	0 	0 	0 	0 	0 	0 	0 	0 	0 	0 	0 	0 	0 	0 	
maximum concurrent accesses to same row:
dram[0]:        16        16        16        16        16        16        16        16        16        16        16        16        16        16        16        16 
dram[1]:        16        16        16        16        16        16        16        16        16        16        16        16        16        16        16        16 
dram[2]:        16        16        16        16        16        16        16        16        16        16        16        16        16        16        16        16 
dram[3]:        16        16        16        16        16        16        16        16        16        16        16        16        16        16        16        16 
dram[4]:        16        16        16        16        16        16        16        16        16        16        16        16        16        16        16        16 
dram[5]:        16        16        16        16        16        16        16        16        16        16        16        16        16        16        16        16 
dram[6]:        16        16        16        16        16        16        16        16        16        16        16        16        16        16        16        16 
dram[7]:        16        16        16        16        16        16        16        16        16        16        16        16        16        16        16        16 
dram[8]:        16        16        16        16        16        16        16        16        16        16        16        16        16        16        16        16 
dram[9]:        16        16        16        16        16        16        16        16        16        16        16        16        16        16        16        16 
dram[10]:        16        16        16        16        16        16        16        16        16        16        16        16        16        16        16        16 
dram[11]:        16        16        16        16        16        16        16        16        16        16        16        16        16        16        16        16 
maximum service time to same row:
dram[0]:     13736     13848     13743     13701     13446     13463     13290     13288     13190     13075     14180     14211     14042     14063     15286     15238 
dram[1]:     13736     13731     13741     13743     13474     13476     13319     13090     13214     13851     14276     14310     14037     14086     15304     15295 
dram[2]:     13784     13972     13751     13702     13466     13469     13202     13088     13856     13860     14251     14180     14071     13984     15279     15291 
dram[3]:     13806     13788     13730     13877     13455     13458     13187     13290     13874     13198     14222     14114     13953     13839     15341     15335 
dram[4]:     13794     13791     13873     13907     13462     13480     13294     13298     13191     13183     14075     14245     13917     13912     15328     15259 
dram[5]:     13826     13818     13874     13729     13484     13476     13374     13192     13210     14000     14215     14201     13914     13900     15341     15350 
dram[6]:     13810     13897     13870     13903     13472     13493     13197     13297     13975     13952     14221     14131     13866     13961     15311     15335 
dram[7]:     13844     13852     13928     13913     13506     13491     13077     13295     13913     13083     14275     14288     14090     14061     15158     15157 
dram[8]:     13853     13839     13922     13952     13511     13510     13287     13281     13084     13179     14274     14288     14029     14059     15120     15128 
dram[9]:     13859     13896     13969     13950     13510     13511     13349     13192     13080     13994     14279     14195     14107     14063     15234     15262 
dram[10]:     13851     13849     13920     13968     13523     13522     13178     13185     13967     13962     14283     14270     14076     14069     15127     15210 
dram[11]:     13874     13855     13862     13877     13453     13456     13181     13309     13955     13193     14112     14238     14040     14059     15302     15309 
average row accesses per activate:
dram[0]:  6.648438  6.833333  6.909274  7.260593  7.487965  7.427332  7.375810  7.299145  6.802000  6.831326  7.289700  7.423581  6.932927  7.045455  7.467105  7.434498 
dram[1]:  6.512428  6.652344  6.478261  6.953347  7.197895  7.418655  7.172269  7.256900  6.455408  6.593023  7.229787  7.311828  7.270789  6.906883  7.464912  7.649438 
dram[2]:  6.535509  6.849094  6.813121  7.008180  7.393088  7.372845  7.176471  7.221987  6.618677  6.631579  7.153684  7.199152  6.623301  6.851406  7.416122  7.562222 
dram[3]:  6.742574  6.880808  6.991837  7.180294  7.425163  7.587583  7.118998  7.095634  6.792415  6.989733  7.175106  7.186047  6.961225  6.932927  7.467105  7.530973 
dram[4]:  6.759921  6.839357  7.006135  7.273885  7.554084  7.359140  7.330472  6.967347  6.712031  6.802000  7.108787  7.079167  7.355603  7.417391  7.434498  7.370130 
dram[5]:  6.514340  6.648438  6.921212  7.182390  7.368535  7.450980  7.211417  7.215645  6.657534  6.657534  7.041408  6.806000  7.135983  7.133891  7.535398  7.198731 
dram[6]:  6.575290  6.689588  7.018443  7.349785  7.361290  7.465065  7.049587  7.230932  6.685658  6.790419  7.112971  7.260684  7.150943  7.181053  7.457330  7.248936 
dram[7]:  6.667319  7.039256  6.708415  7.039014  7.343348  7.146138  7.051547  6.997951  6.792415  7.147059  7.089770  7.243070  6.756436  7.106250  7.430131  7.334052 
dram[8]:  6.816000  6.868952  6.788119  6.897384  7.390929  7.436956  7.224576  7.196203  6.858871  6.872727  7.151579  7.043478  6.798805  6.993853  7.649438  7.632287 
dram[9]:  6.857143  6.938900  6.911290  7.171548  7.311966  7.343348  7.265393  7.171908  6.884615  7.175106  7.316810  7.056133  7.049587  7.106250  7.591518  7.557778 
dram[10]:  6.628405  6.969325  6.981670  7.112033  7.457516  7.186975  7.059917  7.274468  6.938776  7.192389  7.147368  7.197034  6.849398  7.155136  7.179325  7.209746 
dram[11]:  6.622568  6.594961  7.041068  7.070103  7.345494  7.388769  7.172269  7.497807  6.804000  6.969262  6.715415  6.912601  7.153040  7.215645  7.562222  7.662162 
average row locality = 654856/92417 = 7.085883
number of total memory accesses made:
dram[0]:         0         0         0         0         0         0         0         0         0         0         0         0         0         0         0         0 
dram[1]:         0         0         0         0         0         0         0         0         0         0         0         0         0         0         0         0 
dram[2]:         0         0         0         0         0         0         0         0         0         0         0         0         0         0         0         0 
dram[3]:         0         0         0         0         0         0         0         0         0         0         0         0         0         0         0         0 
dram[4]:         0         0         0         0         0         0         0         0         0         0         0         0         0         0         0         0 
dram[5]:         0         0         0         0         0         0         0         0         0         0         0         0         0         0         0         0 
dram[6]:         0         0         0         0         0         0         0         0         0         0         0         0         0         0         0         0 
dram[7]:         0         0         0         0         0         0         0         0         0         0         0         0         0         0         0         0 
dram[8]:         0         0         0         0         0         0         0         0         0         0         0         0         0         0         0         0 
dram[9]:         0         0         0         0         0         0         0         0         0         0         0         0         0         0         0         0 
dram[10]:         0         0         0         0         0         0         0         0         0         0         0         0         0         0         0         0 
dram[11]:         0         0         0         0         0         0         0         0         0         0         0         0         0         0         0         0 
total accesses: 0
min_bank_accesses = 0!
min_chip_accesses = 0!
number of total read accesses:
dram[0]:         0         0         0         0         0         0         0         0         0         0         0         0         0         0         0         0 
dram[1]:         0         0         0         0         0         0         0         0         0         0         0         0         0         0         0         0 
dram[2]:         0         0         0         0         0         0         0         0         0         0         0         0         0         0         0         0 
dram[3]:         0         0         0         0         0         0         0         0         0         0         0         0         0         0         0         0 
dram[4]:         0         0         0         0         0         0         0         0         0         0         0         0         0         0         0         0 
[...]
Ready @ 354155 -   mf: uid=7435578, sid4294967295:w4294967295, part=11, addr=0xd60e8f00, store, size=128, L2_WRBK  status = IN_PARTITION_DRAM_LATENCY_QUEUE (354059), 
Ready @ 354155 -   mf: uid=7435588, sid4294967295:w4294967295, part=11, addr=0xd6102780, store, size=128, L2_WRBK  status = IN_PARTITION_DRAM_LATENCY_QUEUE (354059), 
Ready @ 354156 -   mf: uid=7435600, sid4294967295:w4294967295, part=11, addr=0xd7371700, store, size=128, L2_WRBK  status = IN_PARTITION_DRAM_LATENCY_QUEUE (354060), 
Ready @ 354158 -   mf: uid=7435630, sid4294967295:w4294967295, part=11, addr=0xd8fbc380, store, size=128, L2_WRBK  status = IN_PARTITION_DRAM_LATENCY_QUEUE (354062), 
Ready @ 354169 -   mf: uid=7435627, sid4294967295:w4294967295, part=11, addr=0xd736db00, store, size=128, L2_WRBK  status = IN_PARTITION_DRAM_LATENCY_QUEUE (354073), 
Ready @ 354170 -   mf: uid=7435658, sid4294967295:w4294967295, part=11, addr=0xd6101b80, store, size=128, L2_WRBK  status = IN_PARTITION_DRAM_LATENCY_QUEUE (354074), 
Ready @ 354181 -   mf: uid=7435652, sid4294967295:w4294967295, part=11, addr=0xd4e7f300, store, size=128, L2_WRBK  status = IN_PARTITION_DRAM_LATENCY_QUEUE (354085), 
Ready @ 354183 -   mf: uid=7435667, sid4294967295:w4294967295, part=11, addr=0xd60f7f80, store, size=128, L2_WRBK  status = IN_PARTITION_DRAM_LATENCY_QUEUE (354087), 
Ready @ 354184 -   mf: uid=7435710, sid4294967295:w4294967295, part=11, addr=0xd8fbc300, store, size=128, L2_WRBK  status = IN_PARTITION_DRAM_LATENCY_QUEUE (354088), 
Ready @ 354186 -   mf: uid=7435700, sid4294967295:w4294967295, part=11, addr=0xd7372380, store, size=128, L2_WRBK  status = IN_PARTITION_DRAM_LATENCY_QUEUE (354090), 
DRAM[11]: 16 bks, busW=2 BL=16 CL=24, tRRD=12 tCCD=4, tRCD=24 tRAS=55 tRP=24 tRC=78
n_cmd=908053 n_nop=676298 n_act=7692 n_pre=7676 n_ref_event=0 n_req=54638 n_rd=0 n_rd_L2_A=0 n_write=0 n_wr_bk=218258 bw_util=0.9614
n_activity=873818 dram_eff=0.9991
bk0: 0a 300185i bk1: 0a 284872i bk2: 0a 280929i bk3: 0a 274991i bk4: 0a 314097i bk5: 0a 299802i bk6: 0a 280912i bk7: 0a 269815i bk8: 0a 302531i bk9: 0a 294941i bk10: 0a 291913i bk11: 0a 278124i bk12: 0a 298174i bk13: 0a 285427i bk14: 0a 283760i bk15: 0a 272197i 

------------------------------------------------------------------------

Row_Buffer_Locality = 0.859035
Row_Buffer_Locality_read = -nan
Row_Buffer_Locality_write = 0.859035
Bank_Level_Parallism = 11.415734
Bank_Level_Parallism_Col = 10.963397
Bank_Level_Parallism_Ready = 7.961508
write_to_read_ratio_blp_rw_average = 1.000000
GrpLevelPara = 3.988706 

BW Util details:
bwutil = 0.961433 
total_CMD = 908053 
util_bw = 873031 
Wasted_Col = 364 
Wasted_Row = 44 
Idle = 34614 

BW Util Bottlenecks: 
RCDc_limit = 0 
RCDWRc_limit = 160 
WTRc_limit = 0 
RTWc_limit = 0 
CCDLc_limit = 326 
rwq = 0 
CCDLc_limit_alone = 326 
WTRc_limit_alone = 0 
RTWc_limit_alone = 0 

Commands details: 
total_CMD = 908053 
n_nop = 676298 
Read = 0 
Write = 0 
L2_Alloc = 0 
L2_WB = 218258 
n_act = 7692 
n_pre = 7676 
n_ref = 0 
n_req = 54638 
total_req = 218258 

Dual Bus Interface Util: 
issued_total_row = 15368 
issued_total_col = 218258 
Row_Bus_Util =  0.016924 
CoL_Bus_Util = 0.240358 
Either_Row_CoL_Bus_Util = 0.255222 
Issued_on_Two_Bus_Simul_Util = 0.002060 
issued_two_Eff = 0.008073 
queue_avg = 61.217373 


dram_util_bins: 0 0 0 0 0 0 0 0 0 0
dram_eff_bins: 0 0 0 0 0 0 0 0 0 0
mrqq: max=64 avg=61.2174

========= L2 cache stats =========
L2_cache_bank[0]: Access = 113616, Miss = 113616, Miss_rate = 1.000, Pending_hits = 0, Reservation_fails = 0
L2_cache_bank[1]: Access = 113616, Miss = 113616, Miss_rate = 1.000, Pending_hits = 0, Reservation_fails = 0
L2_cache_bank[2]: Access = 113616, Miss = 113616, Miss_rate = 1.000, Pending_hits = 0, Reservation_fails = 0
L2_cache_bank[3]: Access = 113616, Miss = 113616, Miss_rate = 1.000, Pending_hits = 0, Reservation_fails = 0
L2_cache_bank[4]: Access = 113616, Miss = 113616, Miss_rate = 1.000, Pending_hits = 0, Reservation_fails = 0
L2_cache_bank[5]: Access = 113616, Miss = 113616, Miss_rate = 1.000, Pending_hits = 0, Reservation_fails = 0
L2_cache_bank[6]: Access = 113616, Miss = 113616, Miss_rate = 1.000, Pending_hits = 0, Reservation_fails = 0
L2_cache_bank[7]: Access = 113616, Miss = 113616, Miss_rate = 1.000, Pending_hits = 0, Reservation_fails = 0
L2_cache_bank[8]: Access = 113616, Miss = 113616, Miss_rate = 1.000, Pending_hits = 0, Reservation_fails = 0
L2_cache_bank[9]: Access = 113616, Miss = 113616, Miss_rate = 1.000, Pending_hits = 0, Reservation_fails = 0
L2_cache_bank[10]: Access = 113616, Miss = 113616, Miss_rate = 1.000, Pending_hits = 0, Reservation_fails = 0
L2_cache_bank[11]: Access = 113616, Miss = 113616, Miss_rate = 1.000, Pending_hits = 0, Reservation_fails = 0
L2_cache_bank[12]: Access = 113612, Miss = 113612, Miss_rate = 1.000, Pending_hits = 0, Reservation_fails = 0
L2_cache_bank[13]: Access = 113600, Miss = 113600, Miss_rate = 1.000, Pending_hits = 0, Reservation_fails = 0
L2_cache_bank[14]: Access = 113618, Miss = 113616, Miss_rate = 1.000, Pending_hits = 0, Reservation_fails = 0
L2_cache_bank[15]: Access = 113614, Miss = 113614, Miss_rate = 1.000, Pending_hits = 0, Reservation_fails = 0
L2_cache_bank[16]: Access = 113617, Miss = 113616, Miss_rate = 1.000, Pending_hits = 0, Reservation_fails = 0
L2_cache_bank[17]: Access = 113616, Miss = 113616, Miss_rate = 1.000, Pending_hits = 0, Reservation_fails = 0
L2_cache_bank[18]: Access = 113616, Miss = 113616, Miss_rate = 1.000, Pending_hits = 0, Reservation_fails = 0
L2_cache_bank[19]: Access = 113616, Miss = 113616, Miss_rate = 1.000, Pending_hits = 0, Reservation_fails = 0
L2_cache_bank[20]: Access = 113616, Miss = 113616, Miss_rate = 1.000, Pending_hits = 0, Reservation_fails = 0
L2_cache_bank[21]: Access = 113616, Miss = 113616, Miss_rate = 1.000, Pending_hits = 0, Reservation_fails = 0
L2_cache_bank[22]: Access = 113616, Miss = 113616, Miss_rate = 1.000, Pending_hits = 0, Reservation_fails = 0
L2_cache_bank[23]: Access = 113616, Miss = 113616, Miss_rate = 1.000, Pending_hits = 0, Reservation_fails = 0
L2_total_cache_accesses = 2726765
L2_total_cache_misses = 2726762
L2_total_cache_miss_rate = 1.0000
L2_total_cache_pending_hits = 0
L2_total_cache_reservation_fails = 0
L2_total_cache_breakdown:
	L2_cache_stats_breakdown[GLOBAL_ACC_R][HIT] = 0
	L2_cache_stats_breakdown[GLOBAL_ACC_R][HIT_RESERVED] = 0
	L2_cache_stats_breakdown[GLOBAL_ACC_R][MISS] = 0
	L2_cache_stats_breakdown[GLOBAL_ACC_R][RESERVATION_FAIL] = 0
	L2_cache_stats_breakdown[GLOBAL_ACC_R][SECTOR_MISS] = 0
	L2_cache_stats_breakdown[GLOBAL_ACC_R][MSHR_HIT] = 0
	L2_cache_stats_breakdown[LOCAL_ACC_R][HIT] = 0
	L2_cache_stats_breakdown[LOCAL_ACC_R][HIT_RESERVED] = 0
	L2_cache_stats_breakdown[LOCAL_ACC_R][MISS] = 0
	L2_cache_stats_breakdown[LOCAL_ACC_R][RESERVATION_FAIL] = 0
	L2_cache_stats_breakdown[LOCAL_ACC_R][SECTOR_MISS] = 0
	L2_cache_stats_breakdown[LOCAL_ACC_R][MSHR_HIT] = 0
	L2_cache_stats_breakdown[CONST_ACC_R][HIT] = 0
	L2_cache_stats_breakdown[CONST_ACC_R][HIT_RESERVED] = 0
	L2_cache_stats_breakdown[CONST_ACC_R][MISS] = 0
	L2_cache_stats_breakdown[CONST_ACC_R][RESERVATION_FAIL] = 0
	L2_cache_stats_breakdown[CONST_ACC_R][SECTOR_MISS] = 0
	L2_cache_stats_breakdown[CONST_ACC_R][MSHR_HIT] = 0
	L2_cache_stats_breakdown[TEXTURE_ACC_R][HIT] = 0
	L2_cache_stats_breakdown[TEXTURE_ACC_R][HIT_RESERVED] = 0
	L2_cache_stats_breakdown[TEXTURE_ACC_R][MISS] = 0
	L2_cache_stats_breakdown[TEXTURE_ACC_R][RESERVATION_FAIL] = 0
	L2_cache_stats_breakdown[TEXTURE_ACC_R][SECTOR_MISS] = 0
	L2_cache_stats_breakdown[TEXTURE_ACC_R][MSHR_HIT] = 0
	L2_cache_stats_breakdown[GLOBAL_ACC_W][HIT] = 3
	L2_cache_stats_breakdown[GLOBAL_ACC_W][HIT_RESERVED] = 0
	L2_cache_stats_breakdown[GLOBAL_ACC_W][MISS] = 681692
	L2_cache_stats_breakdown[GLOBAL_ACC_W][RESERVATION_FAIL] = 0
	L2_cache_stats_breakdown[GLOBAL_ACC_W][SECTOR_MISS] = 2045070
	L2_cache_stats_breakdown[GLOBAL_ACC_W][MSHR_HIT] = 0
	L2_cache_stats_breakdown[LOCAL_ACC_W][HIT] = 0
	L2_cache_stats_breakdown[LOCAL_ACC_W][HIT_RESERVED] = 0
	L2_cache_stats_breakdown[LOCAL_ACC_W][MISS] = 0
	L2_cache_stats_breakdown[LOCAL_ACC_W][RESERVATION_FAIL] = 0
	L2_cache_stats_breakdown[LOCAL_ACC_W][SECTOR_MISS] = 0
	L2_cache_stats_breakdown[LOCAL_ACC_W][MSHR_HIT] = 0
	L2_cache_stats_breakdown[L1_WRBK_ACC][HIT] = 0
	L2_cache_stats_breakdown[L1_WRBK_ACC][HIT_RESERVED] = 0
	L2_cache_stats_breakdown[L1_WRBK_ACC][MISS] = 0
	L2_cache_stats_breakdown[L1_WRBK_ACC][RESERVATION_FAIL] = 0
	L2_cache_stats_breakdown[L1_WRBK_ACC][SECTOR_MISS] = 0
	L2_cache_stats_breakdown[L1_WRBK_ACC][MSHR_HIT] = 0
	L2_cache_stats_breakdown[L2_WRBK_ACC][HIT] = 0
	L2_cache_stats_breakdown[L2_WRBK_ACC][HIT_RESERVED] = 0
	L2_cache_stats_breakdown[L2_WRBK_ACC][MISS] = 0
	L2_cache_stats_breakdown[L2_WRBK_ACC][RESERVATION_FAIL] = 0
	L2_cache_stats_breakdown[L2_WRBK_ACC][SECTOR_MISS] = 0
	L2_cache_stats_breakdown[L2_WRBK_ACC][MSHR_HIT] = 0
	L2_cache_stats_breakdown[INST_ACC_R][HIT] = 0
	L2_cache_stats_breakdown[INST_ACC_R][HIT_RESERVED] = 0
	L2_cache_stats_breakdown[INST_ACC_R][MISS] = 0
	L2_cache_stats_breakdown[INST_ACC_R][RESERVATION_FAIL] = 0
	L2_cache_stats_breakdown[INST_ACC_R][SECTOR_MISS] = 0
	L2_cache_stats_breakdown[INST_ACC_R][MSHR_HIT] = 0
	L2_cache_stats_breakdown[L1_WR_ALLOC_R][HIT] = 0
	L2_cache_stats_breakdown[L1_WR_ALLOC_R][HIT_RESERVED] = 0
	L2_cache_stats_breakdown[L1_WR_ALLOC_R][MISS] = 0
	L2_cache_stats_breakdown[L1_WR_ALLOC_R][RESERVATION_FAIL] = 0
	L2_cache_stats_breakdown[L1_WR_ALLOC_R][SECTOR_MISS] = 0
	L2_cache_stats_breakdown[L1_WR_ALLOC_R][MSHR_HIT] = 0
	L2_cache_stats_breakdown[L2_WR_ALLOC_R][HIT] = 0
	L2_cache_stats_breakdown[L2_WR_ALLOC_R][HIT_RESERVED] = 0
	L2_cache_stats_breakdown[L2_WR_ALLOC_R][MISS] = 0
	L2_cache_stats_breakdown[L2_WR_ALLOC_R][RESERVATION_FAIL] = 0
	L2_cache_stats_breakdown[L2_WR_ALLOC_R][SECTOR_MISS] = 0
	L2_cache_stats_breakdown[L2_WR_ALLOC_R][MSHR_HIT] = 0
	L2_cache_stats_breakdown[GLOBAL_ACC_W][TOTAL_ACCESS] = 2726765
L2_total_cache_reservation_fail_breakdown:
L2_cache_data_port_util = 0.309
L2_cache_fill_port_util = 0.000

icnt_total_pkts_mem_to_simt=2726765
icnt_total_pkts_simt_to_mem=2726765
LD_mem_lat_dist  0 0 0 0 0 0 0 0 0 0 0 0 0 0 0 0 0 0 0 0 0 0 0 0 0 0 0
ST_mem_lat_dist  0 0 0 0 0 0 0 0 0 0 0 0 0 0 0 0 0 0 0 0 0 0 0 0 0 0 0
----------------------------Interconnect-DETAILS--------------------------------
Req_Network_injected_packets_num = 2726765
Req_Network_cycles = 354091
Req_Network_injected_packets_per_cycle =       7.7007 
Req_Network_conflicts_per_cycle =       1.4547
Req_Network_conflicts_per_cycle_util =       1.4888
Req_Bank_Level_Parallism =       7.8814
Req_Network_in_buffer_full_per_cycle =       0.0000
Req_Network_in_buffer_avg_util =       2.6931
Req_Network_out_buffer_full_per_cycle =       0.0372
Req_Network_out_buffer_avg_util =     335.8915

Reply_Network_injected_packets_num = 2726765
Reply_Network_cycles = 354091
Reply_Network_injected_packets_per_cycle =        7.7007
Reply_Network_conflicts_per_cycle =        9.4047
Reply_Network_conflicts_per_cycle_util =       9.5817
Reply_Bank_Level_Parallism =       7.8456
Reply_Network_in_buffer_full_per_cycle =       0.0000
Reply_Network_in_buffer_avg_util =       6.5092
Reply_Network_out_buffer_full_per_cycle =       0.0000
Reply_Network_out_buffer_avg_util =       0.2567
----------------------------END-of-Interconnect-DETAILS-------------------------


gpgpu_simulation_time = 0 days, 0 hrs, 53 min, 6 sec (3186 sec)
gpgpu_simulation_rate = 59339 (inst/sec)
gpgpu_simulation_rate = 111 (cycle/sec)
gpgpu_silicon_slowdown = 12297297x
GPGPU-Sim: synchronize waiting for inactive GPU simulation
GPGPU-Sim API: Stream Manager State
GPGPU-Sim: detected inactive GPU simulation thread
Launching CUDA BC solver (18936 CTAs/SM, 256 threads/CTA) ...
GPGPU-Sim PTX: Setting up arguments for 4 bytes starting at 0x7ffd3a08d89c..
GPGPU-Sim PTX: Setting up arguments for 8 bytes starting at 0x7ffd3a08d890..
GPGPU-Sim PTX: Setting up arguments for 8 bytes starting at 0x7ffd3a08d888..
GPGPU-Sim PTX: Setting up arguments for 8 bytes starting at 0x7ffd3a08d880..
GPGPU-Sim PTX: Setting up arguments for 8 bytes starting at 0x7ffd3a08d878..
GPGPU-Sim PTX: Setting up arguments for 4 bytes starting at 0x7ffd3a08d898..
GPGPU-Sim PTX: Setting up arguments for 8 bytes starting at 0x7ffd3a08d870..
GPGPU-Sim PTX: Setting up arguments for 8 bytes starting at 0x7ffd3a08d868..

GPGPU-Sim PTX: cudaLaunch for 0x0x562df0d38156 (mode=performance simulation) on stream 0
GPGPU-Sim PTX: finding reconvergence points for '_Z10forward_lbiPKmPKiPiS3_iPbS4_'...
GPGPU-Sim PTX: Finding dominators for '_Z10forward_lbiPKmPKiPiS3_iPbS4_'...
GPGPU-Sim PTX: Finding immediate dominators for '_Z10forward_lbiPKmPKiPiS3_iPbS4_'...
GPGPU-Sim PTX: Finding postdominators for '_Z10forward_lbiPKmPKiPiS3_iPbS4_'...
GPGPU-Sim PTX: Finding immediate postdominators for '_Z10forward_lbiPKmPKiPiS3_iPbS4_'...
GPGPU-Sim PTX: pre-decoding instructions for '_Z10forward_lbiPKmPKiPiS3_iPbS4_'...
GPGPU-Sim PTX: reconvergence points for _Z10forward_lbiPKmPKiPiS3_iPbS4_...
GPGPU-Sim PTX:  1 (potential) branch divergence @  PC=0x618 (bc_topo_lb.1.sm_75.ptx:356) @%p4 bra $L__BB2_4;

GPGPU-Sim PTX:    immediate post dominator      @  PC=0x678 (bc_topo_lb.1.sm_75.ptx:373) mov.u32 %r62, -1;

GPGPU-Sim PTX:  2 (potential) branch divergence @  PC=0x630 (bc_topo_lb.1.sm_75.ptx:360) @%p6 bra $L__BB2_4;

GPGPU-Sim PTX:    immediate post dominator      @  PC=0x678 (bc_topo_lb.1.sm_75.ptx:373) mov.u32 %r62, -1;

GPGPU-Sim PTX:  3 (potential) branch divergence @  PC=0x648 (bc_topo_lb.1.sm_75.ptx:364) @%p8 bra $L__BB2_4;

GPGPU-Sim PTX:    immediate post dominator      @  PC=0x678 (bc_topo_lb.1.sm_75.ptx:373) mov.u32 %r62, -1;

GPGPU-Sim PTX:  4 (potential) branch divergence @  PC=0x6b8 (bc_topo_lb.1.sm_75.ptx:381) @%p4 bra $L__BB2_8;

GPGPU-Sim PTX:    immediate post dominator      @  PC=0x760 (bc_topo_lb.1.sm_75.ptx:407) shr.u32 %r74, %r1, 3;

GPGPU-Sim PTX:  5 (potential) branch divergence @  PC=0x6d0 (bc_topo_lb.1.sm_75.ptx:385) @%p11 bra $L__BB2_8;

GPGPU-Sim PTX:    immediate post dominator      @  PC=0x760 (bc_topo_lb.1.sm_75.ptx:407) shr.u32 %r74, %r1, 3;

GPGPU-Sim PTX:  6 (potential) branch divergence @  PC=0x6f0 (bc_topo_lb.1.sm_75.ptx:390) @%p12 bra $L__BB2_8;

GPGPU-Sim PTX:    immediate post dominator      @  PC=0x760 (bc_topo_lb.1.sm_75.ptx:407) shr.u32 %r74, %r1, 3;

GPGPU-Sim PTX:  7 (potential) branch divergence @  PC=0x7a0 (bc_topo_lb.1.sm_75.ptx:415) @%p13 bra $L__BB2_11;

GPGPU-Sim PTX:    immediate post dominator      @  PC=0x9b0 (bc_topo_lb.1.sm_75.ptx:487) bar.sync 0;

GPGPU-Sim PTX:  8 (potential) branch divergence @  PC=0x9a0 (bc_topo_lb.1.sm_75.ptx:482) @%p14 bra $L__BB2_11;

GPGPU-Sim PTX:    immediate post dominator      @  PC=0x9b0 (bc_topo_lb.1.sm_75.ptx:487) bar.sync 0;

GPGPU-Sim PTX:  9 (potential) branch divergence @  PC=0x9c8 (bc_topo_lb.1.sm_75.ptx:490) @%p15 bra $L__BB2_29;

GPGPU-Sim PTX:    immediate post dominator      @  PC=0xd20 (bc_topo_lb.1.sm_75.ptx:623) ret;

GPGPU-Sim PTX: 10 (potential) branch divergence @  PC=0xa50 (bc_topo_lb.1.sm_75.ptx:510) @%p18 bra $L__BB2_23;

GPGPU-Sim PTX:    immediate post dominator      @  PC=0xc48 (bc_topo_lb.1.sm_75.ptx:587) bar.sync 0;

GPGPU-Sim PTX: 11 (potential) branch divergence @  PC=0xaa0 (bc_topo_lb.1.sm_75.ptx:521) @%p19 bra $L__BB2_18;

GPGPU-Sim PTX:    immediate post dominator      @  PC=0xb60 (bc_topo_lb.1.sm_75.ptx:551) setp.eq.s32 %p21, %r21, 0;

GPGPU-Sim PTX: 12 (potential) branch divergence @  PC=0xb50 (bc_topo_lb.1.sm_75.ptx:546) @%p20 bra $L__BB2_16;

GPGPU-Sim PTX:    immediate post dominator      @  PC=0xb58 (bc_topo_lb.1.sm_75.ptx:548) add.s32 %r200, %r192, %r14;

GPGPU-Sim PTX: 13 (potential) branch divergence @  PC=0xb68 (bc_topo_lb.1.sm_75.ptx:552) @%p21 bra $L__BB2_23;

GPGPU-Sim PTX:    immediate post dominator      @  PC=0xc48 (bc_topo_lb.1.sm_75.ptx:587) bar.sync 0;

GPGPU-Sim PTX: 14 (potential) branch divergence @  PC=0xbb8 (bc_topo_lb.1.sm_75.ptx:563) @%p22 bra $L__BB2_22;

GPGPU-Sim PTX:    immediate post dominator      @  PC=0xc40 (bc_topo_lb.1.sm_75.ptx:584) add.s32 %r200, %r198, %r14;

GPGPU-Sim PTX: 15 (potential) branch divergence @  PC=0xc10 (bc_topo_lb.1.sm_75.ptx:575) @%p23 bra $L__BB2_22;

GPGPU-Sim PTX:    immediate post dominator      @  PC=0xc40 (bc_topo_lb.1.sm_75.ptx:584) add.s32 %r200, %r198, %r14;

GPGPU-Sim PTX: 16 (potential) branch divergence @  PC=0xc58 (bc_topo_lb.1.sm_75.ptx:589) @%p24 bra $L__BB2_28;

GPGPU-Sim PTX:    immediate post dominator      @  PC=0xd00 (bc_topo_lb.1.sm_75.ptx:617) add.s32 %r189, %r189, 256;

GPGPU-Sim PTX: 17 (potential) branch divergence @  PC=0xcc8 (bc_topo_lb.1.sm_75.ptx:604) @%p25 bra $L__BB2_26;

GPGPU-Sim PTX:    immediate post dominator      @  PC=0xce0 (bc_topo_lb.1.sm_75.ptx:610) setp.ne.s32 %p26, %r202, %r55;

GPGPU-Sim PTX: 18 (potential) branch divergence @  PC=0xce8 (bc_topo_lb.1.sm_75.ptx:611) @%p26 bra $L__BB2_28;

GPGPU-Sim PTX:    immediate post dominator      @  PC=0xd00 (bc_topo_lb.1.sm_75.ptx:617) add.s32 %r189, %r189, 256;

GPGPU-Sim PTX: 19 (potential) branch divergence @  PC=0xd18 (bc_topo_lb.1.sm_75.ptx:620) @%p27 bra $L__BB2_13;

GPGPU-Sim PTX:    immediate post dominator      @  PC=0xd20 (bc_topo_lb.1.sm_75.ptx:623) ret;

GPGPU-Sim PTX: ... end of reconvergence points for _Z10forward_lbiPKmPKiPiS3_iPbS4_
GPGPU-Sim PTX: ... done pre-decoding instructions for '_Z10forward_lbiPKmPKiPiS3_iPbS4_'.
GPGPU-Sim PTX: pushing kernel '_Z10forward_lbiPKmPKiPiS3_iPbS4_' to stream 0, gridDim= (18936,1,1) blockDim = (256,1,1) 
GPGPU-Sim uArch: Shader 3 bind to kernel 2 '_Z10forward_lbiPKmPKiPiS3_iPbS4_'
GPGPU-Sim uArch: CTA/core = 4, limited by: threads
GPGPU-Sim: Reconfigure L1 cache to 64KB
GPGPU-Sim uArch: Shader 4 bind to kernel 2 '_Z10forward_lbiPKmPKiPiS3_iPbS4_'
GPGPU-Sim uArch: Shader 5 bind to kernel 2 '_Z10forward_lbiPKmPKiPiS3_iPbS4_'
GPGPU-Sim uArch: Shader 6 bind to kernel 2 '_Z10forward_lbiPKmPKiPiS3_iPbS4_'
GPGPU-Sim uArch: Shader 7 bind to kernel 2 '_Z10forward_lbiPKmPKiPiS3_iPbS4_'
GPGPU-Sim uArch: Shader 8 bind to kernel 2 '_Z10forward_lbiPKmPKiPiS3_iPbS4_'
GPGPU-Sim uArch: Shader 9 bind to kernel 2 '_Z10forward_lbiPKmPKiPiS3_iPbS4_'
GPGPU-Sim uArch: Shader 10 bind to kernel 2 '_Z10forward_lbiPKmPKiPiS3_iPbS4_'
GPGPU-Sim uArch: Shader 11 bind to kernel 2 '_Z10forward_lbiPKmPKiPiS3_iPbS4_'
GPGPU-Sim uArch: Shader 12 bind to kernel 2 '_Z10forward_lbiPKmPKiPiS3_iPbS4_'
GPGPU-Sim uArch: Shader 13 bind to kernel 2 '_Z10forward_lbiPKmPKiPiS3_iPbS4_'
GPGPU-Sim uArch: Shader 14 bind to kernel 2 '_Z10forward_lbiPKmPKiPiS3_iPbS4_'
GPGPU-Sim uArch: Shader 15 bind to kernel 2 '_Z10forward_lbiPKmPKiPiS3_iPbS4_'
GPGPU-Sim uArch: Shader 16 bind to kernel 2 '_Z10forward_lbiPKmPKiPiS3_iPbS4_'
GPGPU-Sim uArch: Shader 17 bind to kernel 2 '_Z10forward_lbiPKmPKiPiS3_iPbS4_'
GPGPU-Sim uArch: Shader 18 bind to kernel 2 '_Z10forward_lbiPKmPKiPiS3_iPbS4_'
GPGPU-Sim uArch: Shader 19 bind to kernel 2 '_Z10forward_lbiPKmPKiPiS3_iPbS4_'
GPGPU-Sim uArch: Shader 20 bind to kernel 2 '_Z10forward_lbiPKmPKiPiS3_iPbS4_'
GPGPU-Sim uArch: Shader 21 bind to kernel 2 '_Z10forward_lbiPKmPKiPiS3_iPbS4_'
GPGPU-Sim uArch: Shader 22 bind to kernel 2 '_Z10forward_lbiPKmPKiPiS3_iPbS4_'
GPGPU-Sim uArch: Shader 23 bind to kernel 2 '_Z10forward_lbiPKmPKiPiS3_iPbS4_'
GPGPU-Sim uArch: Shader 24 bind to kernel 2 '_Z10forward_lbiPKmPKiPiS3_iPbS4_'
GPGPU-Sim uArch: Shader 25 bind to kernel 2 '_Z10forward_lbiPKmPKiPiS3_iPbS4_'
GPGPU-Sim uArch: Shader 26 bind to kernel 2 '_Z10forward_lbiPKmPKiPiS3_iPbS4_'
GPGPU-Sim uArch: Shader 27 bind to kernel 2 '_Z10forward_lbiPKmPKiPiS3_iPbS4_'
GPGPU-Sim uArch: Shader 28 bind to kernel 2 '_Z10forward_lbiPKmPKiPiS3_iPbS4_'
GPGPU-Sim uArch: Shader 29 bind to kernel 2 '_Z10forward_lbiPKmPKiPiS3_iPbS4_'
GPGPU-Sim uArch: Shader 0 bind to kernel 2 '_Z10forward_lbiPKmPKiPiS3_iPbS4_'
GPGPU-Sim uArch: Shader 1 bind to kernel 2 '_Z10forward_lbiPKmPKiPiS3_iPbS4_'
GPGPU-Sim uArch: Shader 2 bind to kernel 2 '_Z10forward_lbiPKmPKiPiS3_iPbS4_'
