

        *** GPGPU-Sim Simulator Version 4.2.0  [build gpgpu-sim_git-commit-5e9d31b8132651796656877ecb58fde27177ba7a_modified_315.0] ***


GPGPU-Sim PTX: simulation mode 0 (can change with PTX_SIM_MODE_FUNC environment variable:
               1=functional simulation only, 0=detailed performance simulator)
GPGPU-Sim PTX: overriding embedded ptx with ptx file (PTX_SIM_USE_PTX_FILE is set)
GPGPU-Sim: Configuration options:

-save_embedded_ptx                      0 # saves ptx files embedded in binary as <n>.ptx
-keep                                   0 # keep intermediate files created by GPGPU-Sim when interfacing with external programs
-gpgpu_ptx_save_converted_ptxplus                    0 # Saved converted ptxplus to a file
-gpgpu_occupancy_sm_number                   75 # The SM number to pass to ptxas when getting register usage for computing GPU occupancy. This parameter is required in the config.
-ptx_opcode_latency_int           4,4,4,4,21 # Opcode latencies for integers <ADD,MAX,MUL,MAD,DIV,SHFL>Default 1,1,19,25,145,32
-ptx_opcode_latency_fp           4,4,4,4,39 # Opcode latencies for single precision floating points <ADD,MAX,MUL,MAD,DIV>Default 1,1,1,1,30
-ptx_opcode_latency_dp      64,64,64,64,330 # Opcode latencies for double precision floating points <ADD,MAX,MUL,MAD,DIV>Default 8,8,8,8,335
-ptx_opcode_latency_sfu                   21 # Opcode latencies for SFU instructionsDefault 8
-ptx_opcode_latency_tesnor                   64 # Opcode latencies for Tensor instructionsDefault 64
-ptx_opcode_initiation_int            2,2,2,2,2 # Opcode initiation intervals for integers <ADD,MAX,MUL,MAD,DIV,SHFL>Default 1,1,4,4,32,4
-ptx_opcode_initiation_fp            2,2,2,2,4 # Opcode initiation intervals for single precision floating points <ADD,MAX,MUL,MAD,DIV>Default 1,1,1,1,5
-ptx_opcode_initiation_dp      64,64,64,64,130 # Opcode initiation intervals for double precision floating points <ADD,MAX,MUL,MAD,DIV>Default 8,8,8,8,130
-ptx_opcode_initiation_sfu                    8 # Opcode initiation intervals for sfu instructionsDefault 8
-ptx_opcode_initiation_tensor                   64 # Opcode initiation intervals for tensor instructionsDefault 64
-cdp_latency         7200,8000,100,12000,1600 # CDP API latency <cudaStreamCreateWithFlags, cudaGetParameterBufferV2_init_perWarp, cudaGetParameterBufferV2_perKernel, cudaLaunchDeviceV2_init_perWarp, cudaLaunchDevicV2_perKernel>Default 7200,8000,100,12000,1600
-network_mode                           2 # Interconnection network mode
-inter_config_file                   mesh # Interconnection network config file
-icnt_in_buffer_limit                  512 # in_buffer_limit
-icnt_out_buffer_limit                  512 # out_buffer_limit
-icnt_subnets                           2 # subnets
-icnt_arbiter_algo                      1 # arbiter_algo
-icnt_verbose                           0 # inct_verbose
-icnt_grant_cycles                      1 # grant_cycles
-gpgpu_ptx_use_cuobjdump                    1 # Use cuobjdump to extract ptx and sass from binaries
-gpgpu_experimental_lib_support                    0 # Try to extract code from cuda libraries [Broken because of unknown cudaGetExportTable]
-checkpoint_option                      0 #  checkpointing flag (0 = no checkpoint)
-checkpoint_kernel                      1 #  checkpointing during execution of which kernel (1- 1st kernel)
-checkpoint_CTA                         0 #  checkpointing after # of CTA (< less than total CTA)
-resume_option                          0 #  resume flag (0 = no resume)
-resume_kernel                          0 #  Resume from which kernel (1= 1st kernel)
-resume_CTA                             0 #  resume from which CTA 
-checkpoint_CTA_t                       0 #  resume from which CTA 
-checkpoint_insn_Y                      0 #  resume from which CTA 
-gpgpu_ptx_convert_to_ptxplus                    0 # Convert SASS (native ISA) to ptxplus and run ptxplus
-gpgpu_ptx_force_max_capability                   75 # Force maximum compute capability
-gpgpu_ptx_inst_debug_to_file                    0 # Dump executed instructions' debug information to file
-gpgpu_ptx_inst_debug_file       inst_debug.txt # Executed instructions' debug output file
-gpgpu_ptx_inst_debug_thread_uid                    1 # Thread UID for executed instructions' debug output
-gpgpu_simd_model                       1 # 1 = post-dominator
-gpgpu_shader_core_pipeline              1024:32 # shader core pipeline config, i.e., {<nthread>:<warpsize>}
-gpgpu_tex_cache:l1  N:4:128:256,L:R:m:N:L,T:512:8,128:2 # per-shader L1 texture cache  (READ-ONLY) config  {<nsets>:<bsize>:<assoc>,<rep>:<wr>:<alloc>:<wr_alloc>,<mshr>:<N>:<merge>,<mq>:<rf>}
-gpgpu_const_cache:l1 N:128:64:8,L:R:f:N:L,S:2:64,4 # per-shader L1 constant memory cache  (READ-ONLY) config  {<nsets>:<bsize>:<assoc>,<rep>:<wr>:<alloc>:<wr_alloc>,<mshr>:<N>:<merge>,<mq>} 
-gpgpu_cache:il1     N:64:128:16,L:R:f:N:L,S:2:48,4 # shader L1 instruction cache config  {<nsets>:<bsize>:<assoc>,<rep>:<wr>:<alloc>:<wr_alloc>,<mshr>:<N>:<merge>,<mq>} 
-gpgpu_cache:dl1     S:4:128:64,L:T:m:L:L,A:256:32,16:0,32 # per-shader L1 data cache config  {<nsets>:<bsize>:<assoc>,<rep>:<wr>:<alloc>:<wr_alloc>,<mshr>:<N>:<merge>,<mq> | none}
-gpgpu_l1_cache_write_ratio                   25 # L1D write ratio
-gpgpu_l1_banks                         4 # The number of L1 cache banks
-gpgpu_l1_banks_byte_interleaving                   32 # l1 banks byte interleaving granularity
-gpgpu_l1_banks_hashing_function                    0 # l1 banks hashing function
-gpgpu_l1_latency                      32 # L1 Hit Latency
-gpgpu_smem_latency                    30 # smem Latency
-gpgpu_cache:dl1PrefL1                 none # per-shader L1 data cache config  {<nsets>:<bsize>:<assoc>,<rep>:<wr>:<alloc>:<wr_alloc>,<mshr>:<N>:<merge>,<mq> | none}
-gpgpu_cache:dl1PrefShared                 none # per-shader L1 data cache config  {<nsets>:<bsize>:<assoc>,<rep>:<wr>:<alloc>:<wr_alloc>,<mshr>:<N>:<merge>,<mq> | none}
-gpgpu_gmem_skip_L1D                    0 # global memory access skip L1D cache (implements -Xptxas -dlcm=cg, default=no skip)
-gpgpu_perfect_mem                      0 # enable perfect memory mode (no cache miss)
-n_regfile_gating_group                    4 # group of lanes that should be read/written together)
-gpgpu_clock_gated_reg_file                    0 # enable clock gated reg file for power calculations
-gpgpu_clock_gated_lanes                    0 # enable clock gated lanes for power calculations
-gpgpu_shader_registers                65536 # Number of registers per shader core. Limits number of concurrent CTAs. (default 8192)
-gpgpu_registers_per_block                65536 # Maximum number of registers per CTA. (default 8192)
-gpgpu_ignore_resources_limitation                    0 # gpgpu_ignore_resources_limitation (default 0)
-gpgpu_shader_cta                      16 # Maximum number of concurrent CTAs in shader (default 32)
-gpgpu_num_cta_barriers                   16 # Maximum number of named barriers per CTA (default 16)
-gpgpu_n_clusters                      30 # number of processing clusters
-gpgpu_n_cores_per_cluster                    1 # number of simd cores per cluster
-gpgpu_n_cluster_ejection_buffer_size                   32 # number of packets in ejection buffer
-gpgpu_n_ldst_response_buffer_size                    2 # number of response packets in ld/st unit ejection buffer
-gpgpu_shmem_per_block                49152 # Size of shared memory per thread block or CTA (default 48kB)
-gpgpu_shmem_size                   65536 # Size of shared memory per shader core (default 16kB)
-gpgpu_shmem_option                 32,64 # Option list of shared memory sizes
-gpgpu_unified_l1d_size                   96 # Size of unified data cache(L1D + shared memory) in KB
-gpgpu_adaptive_cache_config                    1 # adaptive_cache_config
-gpgpu_shmem_sizeDefault                65536 # Size of shared memory per shader core (default 16kB)
-gpgpu_shmem_size_PrefL1                16384 # Size of shared memory per shader core (default 16kB)
-gpgpu_shmem_size_PrefShared                16384 # Size of shared memory per shader core (default 16kB)
-gpgpu_shmem_num_banks                   32 # Number of banks in the shared memory in each shader core (default 16)
-gpgpu_shmem_limited_broadcast                    0 # Limit shared memory to do one broadcast per cycle (default on)
-gpgpu_shmem_warp_parts                    1 # Number of portions a warp is divided into for shared memory bank conflict check 
-gpgpu_mem_unit_ports                    1 # The number of memory transactions allowed per core cycle
-gpgpu_shmem_warp_parts                    1 # Number of portions a warp is divided into for shared memory bank conflict check 
-gpgpu_warpdistro_shader                   -1 # Specify which shader core to collect the warp size distribution from
-gpgpu_warp_issue_shader                    0 # Specify which shader core to collect the warp issue distribution from
-gpgpu_local_mem_map                    1 # Mapping from local memory space address to simulated GPU physical address space (default = enabled)
-gpgpu_num_reg_banks                    8 # Number of register banks (default = 8)
-gpgpu_reg_bank_use_warp_id                    0 # Use warp ID in mapping registers to banks (default = off)
-gpgpu_sub_core_model                    1 # Sub Core Volta/Pascal model (default = off)
-gpgpu_enable_specialized_operand_collector                    0 # enable_specialized_operand_collector
-gpgpu_operand_collector_num_units_sp                    4 # number of collector units (default = 4)
-gpgpu_operand_collector_num_units_dp                    0 # number of collector units (default = 0)
-gpgpu_operand_collector_num_units_sfu                    4 # number of collector units (default = 4)
-gpgpu_operand_collector_num_units_int                    0 # number of collector units (default = 0)
-gpgpu_operand_collector_num_units_tensor_core                    4 # number of collector units (default = 4)
-gpgpu_operand_collector_num_units_mem                    2 # number of collector units (default = 2)
-gpgpu_operand_collector_num_units_gen                    8 # number of collector units (default = 0)
-gpgpu_operand_collector_num_in_ports_sp                    1 # number of collector unit in ports (default = 1)
-gpgpu_operand_collector_num_in_ports_dp                    0 # number of collector unit in ports (default = 0)
-gpgpu_operand_collector_num_in_ports_sfu                    1 # number of collector unit in ports (default = 1)
-gpgpu_operand_collector_num_in_ports_int                    0 # number of collector unit in ports (default = 0)
-gpgpu_operand_collector_num_in_ports_tensor_core                    1 # number of collector unit in ports (default = 1)
-gpgpu_operand_collector_num_in_ports_mem                    1 # number of collector unit in ports (default = 1)
-gpgpu_operand_collector_num_in_ports_gen                    8 # number of collector unit in ports (default = 0)
-gpgpu_operand_collector_num_out_ports_sp                    1 # number of collector unit in ports (default = 1)
-gpgpu_operand_collector_num_out_ports_dp                    0 # number of collector unit in ports (default = 0)
-gpgpu_operand_collector_num_out_ports_sfu                    1 # number of collector unit in ports (default = 1)
-gpgpu_operand_collector_num_out_ports_int                    0 # number of collector unit in ports (default = 0)
-gpgpu_operand_collector_num_out_ports_tensor_core                    1 # number of collector unit in ports (default = 1)
-gpgpu_operand_collector_num_out_ports_mem                    1 # number of collector unit in ports (default = 1)
-gpgpu_operand_collector_num_out_ports_gen                    8 # number of collector unit in ports (default = 0)
-gpgpu_coalesce_arch                   75 # Coalescing arch (GT200 = 13, Fermi = 20)
-gpgpu_num_sched_per_core                    4 # Number of warp schedulers per core
-gpgpu_max_insn_issue_per_warp                    1 # Max number of instructions that can be issued per warp in one cycle by scheduler (either 1 or 2)
-gpgpu_dual_issue_diff_exec_units                    1 # should dual issue use two different execution unit resources (Default = 1)
-gpgpu_simt_core_sim_order                    1 # Select the simulation order of cores in a cluster (0=Fix, 1=Round-Robin)
-gpgpu_pipeline_widths 4,4,4,4,4,4,4,4,4,4,8,4,4 # Pipeline widths ID_OC_SP,ID_OC_DP,ID_OC_INT,ID_OC_SFU,ID_OC_MEM,OC_EX_SP,OC_EX_DP,OC_EX_INT,OC_EX_SFU,OC_EX_MEM,EX_WB,ID_OC_TENSOR_CORE,OC_EX_TENSOR_CORE
-gpgpu_tensor_core_avail                    1 # Tensor Core Available (default=0)
-gpgpu_num_sp_units                     4 # Number of SP units (default=1)
-gpgpu_num_dp_units                     4 # Number of DP units (default=0)
-gpgpu_num_int_units                    4 # Number of INT units (default=0)
-gpgpu_num_sfu_units                    4 # Number of SF units (default=1)
-gpgpu_num_tensor_core_units                    4 # Number of tensor_core units (default=1)
-gpgpu_num_mem_units                    1 # Number if ldst units (default=1) WARNING: not hooked up to anything
-gpgpu_scheduler                      lrr # Scheduler configuration: < lrr | gto | two_level_active > If two_level_active:<num_active_warps>:<inner_prioritization>:<outer_prioritization>For complete list of prioritization values see shader.h enum scheduler_prioritization_typeDefault: gto
-gpgpu_concurrent_kernel_sm                    0 # Support concurrent kernels on a SM (default = disabled)
-gpgpu_perfect_inst_const_cache                    1 # perfect inst and const cache mode, so all inst and const hits in the cache(default = disabled)
-gpgpu_inst_fetch_throughput                    4 # the number of fetched intruction per warp each cycle
-gpgpu_reg_file_port_throughput                    2 # the number ports of the register file
-specialized_unit_1         0,4,4,4,4,BRA # specialized unit config {<enabled>,<num_units>:<latency>:<initiation>,<ID_OC_SPEC>:<OC_EX_SPEC>,<NAME>}
-specialized_unit_2         0,4,4,4,4,BRA # specialized unit config {<enabled>,<num_units>:<latency>:<initiation>,<ID_OC_SPEC>:<OC_EX_SPEC>,<NAME>}
-specialized_unit_3         0,4,4,4,4,BRA # specialized unit config {<enabled>,<num_units>:<latency>:<initiation>,<ID_OC_SPEC>:<OC_EX_SPEC>,<NAME>}
-specialized_unit_4         0,4,4,4,4,BRA # specialized unit config {<enabled>,<num_units>:<latency>:<initiation>,<ID_OC_SPEC>:<OC_EX_SPEC>,<NAME>}
-specialized_unit_5         0,4,4,4,4,BRA # specialized unit config {<enabled>,<num_units>:<latency>:<initiation>,<ID_OC_SPEC>:<OC_EX_SPEC>,<NAME>}
-specialized_unit_6         0,4,4,4,4,BRA # specialized unit config {<enabled>,<num_units>:<latency>:<initiation>,<ID_OC_SPEC>:<OC_EX_SPEC>,<NAME>}
-specialized_unit_7         0,4,4,4,4,BRA # specialized unit config {<enabled>,<num_units>:<latency>:<initiation>,<ID_OC_SPEC>:<OC_EX_SPEC>,<NAME>}
-specialized_unit_8         0,4,4,4,4,BRA # specialized unit config {<enabled>,<num_units>:<latency>:<initiation>,<ID_OC_SPEC>:<OC_EX_SPEC>,<NAME>}
-gpgpu_perf_sim_memcpy                    1 # Fill the L2 cache on memcpy
-gpgpu_simple_dram_model                    0 # simple_dram_model with fixed latency and BW
-gpgpu_dram_scheduler                    1 # 0 = fifo, 1 = FR-FCFS (defaul)
-gpgpu_dram_partition_queues          64:64:64:64 # i2$:$2d:d2$:$2i
-l2_ideal                               0 # Use a ideal L2 cache that always hit
-gpgpu_cache:dl2     S:64:128:16,L:B:m:L:P,A:192:4,32:0,32 # unified banked L2 data cache config  {<nsets>:<bsize>:<assoc>,<rep>:<wr>:<alloc>:<wr_alloc>,<mshr>:<N>:<merge>,<mq>}
-gpgpu_cache:dl2_texture_only                    0 # L2 cache used for texture only
-gpgpu_n_mem                           12 # number of memory modules (e.g. memory controllers) in gpu
-gpgpu_n_sub_partition_per_mchannel                    2 # number of memory subpartition in each memory module
-gpgpu_n_mem_per_ctrlr                    1 # number of memory chips per memory controller
-gpgpu_memlatency_stat                   14 # track and display latency statistics 0x2 enables MC, 0x4 enables queue logs
-gpgpu_frfcfs_dram_sched_queue_size                   64 # 0 = unlimited (default); # entries per chip
-gpgpu_dram_return_queue_size                  192 # 0 = unlimited (default); # entries per chip
-gpgpu_dram_buswidth                    2 # default = 4 bytes (8 bytes per cycle at DDR)
-gpgpu_dram_burst_length                   16 # Burst length of each DRAM request (default = 4 data bus cycle)
-dram_data_command_freq_ratio                    4 # Frequency ratio between DRAM data bus and command bus (default = 2 times, i.e. DDR)
-gpgpu_dram_timing_opt nbk=16:CCD=4:RRD=12:RCD=24:RAS=55:RP=24:RC=78:CL=24:WL=8:CDLR=10:WR=24:nbkgrp=4:CCDL=6:RTPL=4 # DRAM timing parameters = {nbk:tCCD:tRRD:tRCD:tRAS:tRP:tRC:CL:WL:tCDLR:tWR:nbkgrp:tCCDL:tRTPL}
-gpgpu_l2_rop_latency                  194 # ROP queue latency (default 85)
-dram_latency                          96 # DRAM latency (default 30)
-dram_dual_bus_interface                    0 # dual_bus_interface (default = 0) 
-dram_bnk_indexing_policy                    0 # dram_bnk_indexing_policy (0 = normal indexing, 1 = Xoring with the higher bits) (Default = 0)
-dram_bnkgrp_indexing_policy                    1 # dram_bnkgrp_indexing_policy (0 = take higher bits, 1 = take lower bits) (Default = 0)
-dram_seperate_write_queue_enable                    0 # Seperate_Write_Queue_Enable
-dram_write_queue_size             32:28:16 # Write_Queue_Size
-dram_elimnate_rw_turnaround                    0 # elimnate_rw_turnaround i.e set tWTR and tRTW = 0
-icnt_flit_size                        40 # icnt_flit_size
-icnt_flit_size                        40 # icnt_flit_size
-mem_profiler                           1 # memory access runtime profiling (0 = not enabled)
-gpgpu_mem_addr_mapping dramid@8;00000000.00000000.00000000.00000000.0000RRRR.RRRRRRRR.RBBBCCCC.BCCSSSSS # mapping memory address to dram model {dramid@<start bit>;<memory address map>}
-gpgpu_mem_addr_test                    0 # run sweep test to check address mapping for aliased address
-gpgpu_mem_address_mask                    1 # 0 = old addressing mask, 1 = new addressing mask, 2 = new add. mask + flipped bank sel and chip sel bits
-gpgpu_memory_partition_indexing                    0 # 0 = no indexing, 1 = bitwise xoring, 2 = IPoly, 3 = custom indexing
-accelwattch_xml_file accelwattch_sass_sim.xml # AccelWattch XML file
-power_simulation_enabled                    1 # Turn on power simulator (1=On, 0=Off)
-power_per_cycle_dump                    1 # Dump detailed power output each cycle
-hw_perf_file_name            hw_perf.csv # Hardware Performance Statistics file
-hw_perf_bench_name    hw_perf_bench_name # Kernel Name in Hardware Performance Statistics file
-power_simulation_mode                    0 # Switch performance counter input for power simulation (0=Sim, 1=HW, 2=HW-Sim Hybrid)
-dvfs_enabled                           1 # Turn on DVFS for power model
-aggregate_power_stats                    0 # Accumulate power across all kernels
-accelwattch_hybrid_perfsim_L1_RH                    0 # Get L1 Read Hits for Accelwattch-Hybrid from Accel-Sim
-accelwattch_hybrid_perfsim_L1_RM                    0 # Get L1 Read Misses for Accelwattch-Hybrid from Accel-Sim
-accelwattch_hybrid_perfsim_L1_WH                    0 # Get L1 Write Hits for Accelwattch-Hybrid from Accel-Sim
-accelwattch_hybrid_perfsim_L1_WM                    0 # Get L1 Write Misses for Accelwattch-Hybrid from Accel-Sim
-accelwattch_hybrid_perfsim_L2_RH                    0 # Get L2 Read Hits for Accelwattch-Hybrid from Accel-Sim
-accelwattch_hybrid_perfsim_L2_RM                    0 # Get L2 Read Misses for Accelwattch-Hybrid from Accel-Sim
-accelwattch_hybrid_perfsim_L2_WH                    0 # Get L2 Write Hits for Accelwattch-Hybrid from Accel-Sim
-accelwattch_hybrid_perfsim_L2_WM                    0 # Get L2 Write Misses for Accelwattch-Hybrid from Accel-Sim
-accelwattch_hybrid_perfsim_CC_ACC                    0 # Get Constant Cache Acesses for Accelwattch-Hybrid from Accel-Sim
-accelwattch_hybrid_perfsim_SHARED_ACC                    0 # Get Shared Memory Acesses for Accelwattch-Hybrid from Accel-Sim
-accelwattch_hybrid_perfsim_DRAM_RD                    0 # Get DRAM Reads for Accelwattch-Hybrid from Accel-Sim
-accelwattch_hybrid_perfsim_DRAM_WR                    0 # Get DRAM Writes for Accelwattch-Hybrid from Accel-Sim
-accelwattch_hybrid_perfsim_NOC                    0 # Get Interconnect Acesses for Accelwattch-Hybrid from Accel-Sim
-accelwattch_hybrid_perfsim_PIPE_DUTY                    0 # Get Pipeline Duty Cycle Acesses for Accelwattch-Hybrid from Accel-Sim
-accelwattch_hybrid_perfsim_NUM_SM_IDLE                    0 # Get Number of Idle SMs for Accelwattch-Hybrid from Accel-Sim
-accelwattch_hybrid_perfsim_CYCLES                    0 # Get Executed Cycles for Accelwattch-Hybrid from Accel-Sim
-accelwattch_hybrid_perfsim_VOLTAGE                    0 # Get Chip Voltage for Accelwattch-Hybrid from Accel-Sim
-power_trace_enabled                    0 # produce a file for the power trace (1=On, 0=Off)
-power_trace_zlevel                     0 # Compression level of the power trace output log (0=no comp, 9=highest)
-steady_power_levels_enabled                    0 # produce a file for the steady power levels (1=On, 0=Off)
-steady_state_definition                  8:4 # allowed deviation:number of samples
-gpgpu_max_cycle                        0 # terminates gpu simulation early (0 = no limit)
-gpgpu_max_insn                         0 # terminates gpu simulation early (0 = no limit)
-gpgpu_max_cta                          0 # terminates gpu simulation early (0 = no limit)
-gpgpu_max_completed_cta                    0 # terminates gpu simulation early (0 = no limit)
-gpgpu_runtime_stat                   100 # display runtime statistics such as dram utilization {<freq>:<flag>}
-liveness_message_freq                    1 # Minimum number of seconds between simulation liveness messages (0 = always print)
-gpgpu_compute_capability_major                    7 # Major compute capability version number
-gpgpu_compute_capability_minor                    5 # Minor compute capability version number
-gpgpu_flush_l1_cache                    1 # Flush L1 cache at the end of each kernel call
-gpgpu_flush_l2_cache                    0 # Flush L2 cache at the end of each kernel call
-gpgpu_deadlock_detect                    1 # Stop the simulation at deadlock (1=on (default), 0=off)
-gpgpu_ptx_instruction_classification                    0 # if enabled will classify ptx instruction types per kernel (Max 255 kernels now)
-gpgpu_ptx_sim_mode                     0 # Select between Performance (default) or Functional simulation (1)
-gpgpu_clock_domains 1365:1365:1365:3500.5 # Clock Domain Frequencies in MhZ {<Core Clock>:<ICNT Clock>:<L2 Clock>:<DRAM Clock>}
-gpgpu_max_concurrent_kernel                  128 # maximum kernels that can run concurrently on GPU, set this value according to max resident grids for your compute capability
-gpgpu_cflog_interval                    0 # Interval between each snapshot in control flow logger
-visualizer_enabled                     0 # Turn on visualizer output (1=On, 0=Off)
-visualizer_outputfile                 NULL # Specifies the output log file for visualizer
-visualizer_zlevel                      6 # Compression level of the visualizer output log (0=no comp, 9=highest)
-gpgpu_stack_size_limit                 1024 # GPU thread stack size
-gpgpu_heap_size_limit              8388608 # GPU malloc heap size 
-gpgpu_runtime_sync_depth_limit                    2 # GPU device runtime synchronize depth
-gpgpu_runtime_pending_launch_count_limit                 2048 # GPU device runtime pending launch count
-trace_enabled                          0 # Turn on traces
-trace_components                    none # comma seperated list of traces to enable. Complete list found in trace_streams.tup. Default none
-trace_sampling_core                    0 # The core which is printed using CORE_DPRINTF. Default 0
-trace_sampling_memory_partition                   -1 # The memory partition which is printed using MEMPART_DPRINTF. Default -1 (i.e. all)
-enable_ptx_file_line_stats                    1 # Turn on PTX source line statistic profiling. (1 = On)
-ptx_line_stats_filename gpgpu_inst_stats.txt # Output file for PTX source line statistics.
-gpgpu_kernel_launch_latency                 5000 # Kernel launch latency in cycles. Default: 0
-gpgpu_cdp_enabled                      0 # Turn on CDP
-gpgpu_TB_launch_latency                    0 # thread block launch latency in cycles. Default: 0
-mem_runtime_stat              4294967396 # memory access runtime profiling samplinga0b11bbcad85e961cc8aa0fdea8fd4dd  /home/pars/Documents/sim_1/corr
Extracting PTX file and ptxas options    1: corr.1.sm_75.ptx -arch=sm_75
 freq
-L1D_metrics                            1 # memory access runtime profiling for L1 data cache
-IPC_per_prof_interval                    1 # IPC per profiling interval
-instruction_monitor                    1 # Instruction monitor
-noncoal_metrics                        0 # memory access runtime profiling for shared memory
-L2_metrics                             1 # memory access runtime profiling for L2 cache
-DRAM_metrics                           1 # memory access runtime profiling for DRAM
-Shmem_metrics                          0 # memory access runtime profiling for noncoalesced accesses
-store_enable                           1 # Enable stores for memory profiling
-accumulate_stats                       0 # Accumulate stats for the memory profiling
-dump_enable                            0 # Process dump enable flag - (def = 0)
-flush_l1d                              0 # Enable flushings for L1D caches - (default = 0)
-flush_l2                               0 # Enable flushings for L2 caches - (default = 0)
-flush_dram                             0 # Enable flushings for DRAM - (default = 0)
-flush_noncoalesceds                    0 # Enable flushings for non coalesced accesses - (default = 0)
-flush_shmems                           0 # Enable flushings for shared memory accesses - (default = 0)
-error_percentage          21474836480001 # Error percentage for the flushes - (default = 1)
-dump_sampling_cycle       21474836485000 # Dump sampling frequency - (default = 5000)
-flush_acc_type                         2 # Flush access types
-monitor_sampling_cycle                 5000 # Monitoring sampling cycle - (default = 5000)
DRAM Timing Options:
nbk                                    16 # number of banks
CCD                                     4 # column to column delay
RRD                                    12 # minimal delay between activation of rows in different banks
RCD                                    24 # row to column delay
RAS                                    55 # time needed to activate row
RP                                     24 # time needed to precharge (deactivate) row
RC                                     78 # row cycle time
CDLR                                   10 # switching from write to read (changes tWTR)
WR                                     24 # last data-in to row precharge
CL                                     24 # CAS latency
WL                                      8 # Write latency
nbkgrp                                  4 # number of bank groups
CCDL                                    6 # column to column delay between accesses to different bank groups
RTPL                                    4 # read to precharge delay between accesses to different bank groups
Total number of memory sub partition = 24
addr_dec_mask[CHIP]  = 0000000000000000 	high:64 low:0
addr_dec_mask[BK]    = 0000000000007080 	high:15 low:7
addr_dec_mask[ROW]   = 000000000fff8000 	high:28 low:15
addr_dec_mask[COL]   = 0000000000000f7f 	high:12 low:0
addr_dec_mask[BURST] = 000000000000001f 	high:5 low:0
sub_partition_id_mask = 0000000000000080
GPGPU-Sim uArch: clock freqs: 1365000000.000000:1365000000.000000:1365000000.000000:3500500000.000000
GPGPU-Sim uArch: clock periods: 0.00000000073260073260:0.00000000073260073260:0.00000000073260073260:0.00000000028567347522
*** Initializing Memory Statistics ***
GPGPU-Sim uArch: performance model initialization complete.
self exe links to: /home/pars/Documents/sim_1/corr
self exe links to: /home/pars/Documents/sim_1/corr
11.0
GPGPU-Sim PTX: __cudaRegisterFatBinary, fat_cubin_handle = 1, filename=default
self exe links to: /home/pars/Documents/sim_1/corr
Running md5sum using "md5sum /home/pars/Documents/sim_1/corr "
self exe links to: /home/pars/Documents/sim_1/corr
Extracting specific PTX file named corr.1.sm_75.ptx 
GPGPU-Sim PTX: __cudaRegisterFunction _Z11corr_kernelPfS_ : hostFun 0x0x560cc61c7715, fat_cubin_handle = 1
GPGPU-Sim PTX: Parsing corr.1.sm_75.ptx
GPGPU-Sim PTX: instruction assembly for function '_Z11mean_kernelPfS_'...   done.
GPGPU-Sim PTX: instruction assembly for function '_Z10std_kernelPfS_S_'...   done.
GPGPU-Sim PTX: instruction assembly for function '_Z13reduce_kernelPfS_S_'...   done.
GPGPU-Sim PTX: instruction assembly for function '_Z11corr_kernelPfS_'...   done.
GPGPU-Sim PTX: finished parsing EMBEDDED .ptx file corr.1.sm_75.ptx
GPGPU-Sim PTX: loading globals with explicit initializers... 
GPGPU-Sim PTX: finished loading globals (0 bytes total).
GPGPU-Sim PTX: loading constants with explicit initializers...  done.
GPGPU-Sim PTX: Loading PTXInfo from corr.1.sm_75.ptx
GPGPU-Sim PTX: Kernel '_Z11corr_kernelPfS_' : regs=26, lmem=0, smem=0, cmem=368
GPGPU-Sim PTX: Kernel '_Z13reduce_kernelPfS_S_' : regs=16, lmem=0, smem=0, cmem=376
GPGPU-Sim PTX: Kernel '_Z10std_kernelPfS_S_' : regs=18, lmem=0, smem=0, cmem=376
GPGPU-Sim PTX: Kernel '_Z11mean_kernelPfS_' : regs=18, lmem=0, smem=0, cmem=368
GPGPU-Sim PTX: __cudaRegisterFunction _Z13reduce_kernelPfS_S_ : hostFun 0x0x560cc61c75a6, fat_cubin_handle = 1
GPGPU-Sim PTX: __cudaRegisterFunction _Z10std_kernelPfS_S_ : hostFun 0x0x560cc61c7421, fat_cubin_handle = 1
GPGPU-Sim PTX: __cudaRegisterFunction _Z11mean_kernelPfS_ : hostFun 0x0x560cc61c72a4, fat_cubin_handle = 1
setting device 0 with name GPGPU-Sim_vGPGPU-Sim Simulator Version 4.2.0 
GPGPU-Sim PTX: Setting up arguments for 8 bytes starting at 0x7ffc3224ae18..
GPGPU-Sim PTX: Setting up arguments for 8 bytes starting at 0x7ffc3224ae10..

GPGPU-Sim PTX: cudaLaunch for 0x0x560cc61c72a4 (mode=performance simulation) on stream 0
GPGPU-Sim PTX: finding reconvergence points for '_Z11mean_kernelPfS_'...
GPGPU-Sim PTX: Finding dominators for '_Z11mean_kernelPfS_'...
GPGPU-Sim PTX: Finding immediate dominators for '_Z11mean_kernelPfS_'...
GPGPU-Sim PTX: Finding postdominators for '_Z11mean_kernelPfS_'...
GPGPU-Sim PTX: Finding immediate postdominators for '_Z11mean_kernelPfS_'...
GPGPU-Sim PTX: pre-decoding instructions for '_Z11mean_kernelPfS_'...
GPGPU-Sim PTX: reconvergence points for _Z11mean_kernelPfS_...
GPGPU-Sim PTX:  1 (potential) branch divergence @  PC=0x038 (corr.1.sm_75.ptx:33) @%p1 bra $L__BB0_4;

GPGPU-Sim PTX:    immediate post dominator      @  PC=0x240 (corr.1.sm_75.ptx:104) ret;

GPGPU-Sim PTX:  2 (potential) branch divergence @  PC=0x228 (corr.1.sm_75.ptx:98) @%p2 bra $L__BB0_2;

GPGPU-Sim PTX:    immediate post dominator      @  PC=0x230 (corr.1.sm_75.ptx:100) div.rn.f32 %f35, %f36, 0f4A442E10;

GPGPU-Sim PTX: ... end of reconvergence points for _Z11mean_kernelPfS_
GPGPU-Sim PTX: ... done pre-decoding instructions for '_Z11mean_kernelPfS_'.
GPGPU-Sim PTX: pushing kernel '_Z11mean_kernelPfS_' to stream 0, gridDim= (16,1,1) blockDim = (256,1,1) 
GPGPU-Sim uArch: Shader 0 bind to kernel 1 '_Z11mean_kernelPfS_'
GPGPU-Sim uArch: CTA/core = 4, limited by: threads
GPGPU-Sim: Reconfigure L1 cache to 64KB
GPGPU-Sim uArch: Shader 1 bind to kernel 1 '_Z11mean_kernelPfS_'
GPGPU-Sim uArch: Shader 2 bind to kernel 1 '_Z11mean_kernelPfS_'
GPGPU-Sim uArch: Shader 3 bind to kernel 1 '_Z11mean_kernelPfS_'
GPGPU-Sim uArch: Shader 4 bind to kernel 1 '_Z11mean_kernelPfS_'
GPGPU-Sim uArch: Shader 5 bind to kernel 1 '_Z11mean_kernelPfS_'
GPGPU-Sim uArch: Shader 6 bind to kernel 1 '_Z11mean_kernelPfS_'
GPGPU-Sim uArch: Shader 7 bind to kernel 1 '_Z11mean_kernelPfS_'
GPGPU-Sim uArch: Shader 8 bind to kernel 1 '_Z11mean_kernelPfS_'
GPGPU-Sim uArch: Shader 9 bind to kernel 1 '_Z11mean_kernelPfS_'
GPGPU-Sim uArch: Shader 10 bind to kernel 1 '_Z11mean_kernelPfS_'
GPGPU-Sim uArch: Shader 11 bind to kernel 1 '_Z11mean_kernelPfS_'
GPGPU-Sim uArch: Shader 12 bind to kernel 1 '_Z11mean_kernelPfS_'
GPGPU-Sim uArch: Shader 13 bind to kernel 1 '_Z11mean_kernelPfS_'
GPGPU-Sim uArch: Shader 14 bind to kernel 1 '_Z11mean_kernelPfS_'
GPGPU-Sim uArch: Shader 15 bind to kernel 1 '_Z11mean_kernelPfS_'
Destroy streams for kernel 1: size 0
kernel_name = _Z11mean_kernelPfS_ 
kernel_launch_uid = 1 
gpu_sim_cycle = 1545387
gpu_sim_insn = 54603776
gpu_ipc =      35.3334
gpu_tot_sim_cycle = 1545387
gpu_tot_sim_insn = 54603776
gpu_tot_ipc =      35.3334
gpu_tot_issued_cta = 16
gpu_occupancy = 24.9970% 
gpu_tot_occupancy = 24.9970% 
max_total_param_size = 0
gpu_stall_dramfull = 0
gpu_stall_icnt2sh    = 0
partiton_level_parallism =       3.0913
partiton_level_parallism_total  =       3.0913
partiton_level_parallism_util =       3.1746
partiton_level_parallism_util_total  =       3.1746
L2_BW  =     135.0269 GB/Sec
L2_BW_total  =     135.0269 GB/Sec
gpu_total_sim_rate=13599

========= Core cache stats =========
L1I_cache:
	L1I_total_cache_accesses = 0
	L1I_total_cache_misses = 0
	L1I_total_cache_pending_hits = 0
	L1I_total_cache_reservation_fails = 0
L1D_cache:
	L1D_cache_core[0]: Access = 323664, Miss = 134689, Miss_rate = 0.416, Pending_hits = 24885, Reservation_fails = 1495
	L1D_cache_core[1]: Access = 323664, Miss = 134689, Miss_rate = 0.416, Pending_hits = 24984, Reservation_fails = 1442
	L1D_cache_core[2]: Access = 323664, Miss = 134689, Miss_rate = 0.416, Pending_hits = 24819, Reservation_fails = 1114
	L1D_cache_core[3]: Access = 323664, Miss = 134689, Miss_rate = 0.416, Pending_hits = 24879, Reservation_fails = 1145
	L1D_cache_core[4]: Access = 323664, Miss = 134689, Miss_rate = 0.416, Pending_hits = 24862, Reservation_fails = 1575
	L1D_cache_core[5]: Access = 323664, Miss = 134689, Miss_rate = 0.416, Pending_hits = 24712, Reservation_fails = 1806
	L1D_cache_core[6]: Access = 323664, Miss = 134689, Miss_rate = 0.416, Pending_hits = 24857, Reservation_fails = 1103
	L1D_cache_core[7]: Access = 323664, Miss = 134689, Miss_rate = 0.416, Pending_hits = 24978, Reservation_fails = 1192
	L1D_cache_core[8]: Access = 323664, Miss = 134689, Miss_rate = 0.416, Pending_hits = 24761, Reservation_fails = 1833
	L1D_cache_core[9]: Access = 323664, Miss = 134689, Miss_rate = 0.416, Pending_hits = 24776, Reservation_fails = 1161
	L1D_cache_core[10]: Access = 323664, Miss = 134689, Miss_rate = 0.416, Pending_hits = 25030, Reservation_fails = 1308
	L1D_cache_core[11]: Access = 323664, Miss = 134689, Miss_rate = 0.416, Pending_hits = 24716, Reservation_fails = 2193
	L1D_cache_core[12]: Access = 323664, Miss = 134689, Miss_rate = 0.416, Pending_hits = 24709, Reservation_fails = 1680
	L1D_cache_core[13]: Access = 323664, Miss = 134689, Miss_rate = 0.416, Pending_hits = 24960, Reservation_fails = 1867
	L1D_cache_core[14]: Access = 323664, Miss = 134689, Miss_rate = 0.416, Pending_hits = 25005, Reservation_fails = 1512
	L1D_cache_core[15]: Access = 323664, Miss = 134689, Miss_rate = 0.416, Pending_hits = 24796, Reservation_fails = 1779
	L1D_cache_core[16]: Access = 0, Miss = 0, Miss_rate = -nan, Pending_hits = 0, Reservation_fails = 0
	L1D_cache_core[17]: Access = 0, Miss = 0, Miss_rate = -nan, Pending_hits = 0, Reservation_fails = 0
	L1D_cache_core[18]: Access = 0, Miss = 0, Miss_rate = -nan, Pending_hits = 0, Reservation_fails = 0
	L1D_cache_core[19]: Access = 0, Miss = 0, Miss_rate = -nan, Pending_hits = 0, Reservation_fails = 0
	L1D_cache_core[20]: Access = 0, Miss = 0, Miss_rate = -nan, Pending_hits = 0, Reservation_fails = 0
	L1D_cache_core[21]: Access = 0, Miss = 0, Miss_rate = -nan, Pending_hits = 0, Reservation_fails = 0
	L1D_cache_core[22]: Access = 0, Miss = 0, Miss_rate = -nan, Pending_hits = 0, Reservation_fails = 0
	L1D_cache_core[23]: Access = 0, Miss = 0, Miss_rate = -nan, Pending_hits = 0, Reservation_fails = 0
	L1D_cache_core[24]: Access = 0, Miss = 0, Miss_rate = -nan, Pending_hits = 0, Reservation_fails = 0
	L1D_cache_core[25]: Access = 0, Miss = 0, Miss_rate = -nan, Pending_hits = 0, Reservation_fails = 0
	L1D_cache_core[26]: Access = 0, Miss = 0, Miss_rate = -nan, Pending_hits = 0, Reservation_fails = 0
	L1D_cache_core[27]: Access = 0, Miss = 0, Miss_rate = -nan, Pending_hits = 0, Reservation_fails = 0
	L1D_cache_core[28]: Access = 0, Miss = 0, Miss_rate = -nan, Pending_hits = 0, Reservation_fails = 0
	L1D_cache_core[29]: Access = 0, Miss = 0, Miss_rate = -nan, Pending_hits = 0, Reservation_fails = 0
	L1D_total_cache_accesses = 5178624
	L1D_total_cache_misses = 2155024
	L1D_total_cache_miss_rate = 0.4161
	L1D_total_cache_pending_hits = 397729
	L1D_total_cache_reservation_fails = 24205
	L1D_cache_data_port_util = 0.107
	L1D_cache_fill_port_util = 0.087
L1C_cache:
	L1C_total_cache_accesses = 0
	L1C_total_cache_misses = 0
	L1C_total_cache_pending_hits = 0
	L1C_total_cache_reservation_fails = 0
L1T_cache:
	L1T_total_cache_accesses = 0
	L1T_total_cache_misses = 0
	L1T_total_cache_pending_hits = 0
	L1T_total_cache_reservation_fails = 0

Total_core_cache_stats:
	Total_core_cache_stats_breakdown[GLOBAL_ACC_R][HIT] = 3679
	Total_core_cache_stats_breakdown[GLOBAL_ACC_R][HIT_RESERVED] = 397729
	Total_core_cache_stats_breakdown[GLOBAL_ACC_R][MISS] = 587776
	Total_core_cache_stats_breakdown[GLOBAL_ACC_R][RESERVATION_FAIL] = 22517
	Total_core_cache_stats_breakdown[GLOBAL_ACC_R][SECTOR_MISS] = 1566720
	Total_core_cache_stats_breakdown[GLOBAL_ACC_R][MSHR_HIT] = 397729
	Total_core_cache_stats_breakdown[LOCAL_ACC_R][HIT] = 0
	Total_core_cache_stats_breakdown[LOCAL_ACC_R][HIT_RESERVED] = 0
	Total_core_cache_stats_breakdown[LOCAL_ACC_R][MISS] = 0
	Total_core_cache_stats_breakdown[LOCAL_ACC_R][RESERVATION_FAIL] = 0
	Total_core_cache_stats_breakdown[LOCAL_ACC_R][SECTOR_MISS] = 0
	Total_core_cache_stats_breakdown[LOCAL_ACC_R][MSHR_HIT] = 0
	Total_core_cache_stats_breakdown[CONST_ACC_R][HIT] = 0
	Total_core_cache_stats_breakdown[CONST_ACC_R][HIT_RESERVED] = 0
	Total_core_cache_stats_breakdown[CONST_ACC_R][MISS] = 0
	Total_core_cache_stats_breakdown[CONST_ACC_R][RESERVATION_FAIL] = 0
	Total_core_cache_stats_breakdown[CONST_ACC_R][SECTOR_MISS] = 0
	Total_core_cache_stats_breakdown[CONST_ACC_R][MSHR_HIT] = 0
	Total_core_cache_stats_breakdown[TEXTURE_ACC_R][HIT] = 0
	Total_core_cache_stats_breakdown[TEXTURE_ACC_R][HIT_RESERVED] = 0
	Total_core_cache_stats_breakdown[TEXTURE_ACC_R][MISS] = 0
	Total_core_cache_stats_breakdown[TEXTURE_ACC_R][RESERVATION_FAIL] = 0
	Total_core_cache_stats_breakdown[TEXTURE_ACC_R][SECTOR_MISS] = 0
	Total_core_cache_stats_breakdown[TEXTURE_ACC_R][MSHR_HIT] = 0
	Total_core_cache_stats_breakdown[GLOBAL_ACC_W][HIT] = 2622192
	Total_core_cache_stats_breakdown[GLOBAL_ACC_W][HIT_RESERVED] = 0
	Total_core_cache_stats_breakdown[GLOBAL_ACC_W][MISS] = 144
	Total_core_cache_stats_breakdown[GLOBAL_ACC_W][RESERVATION_FAIL] = 1688
	Total_core_cache_stats_breakdown[GLOBAL_ACC_W][SECTOR_MISS] = 384
	Total_core_cache_stats_breakdown[GLOBAL_ACC_W][MSHR_HIT] = 0
	Total_core_cache_stats_breakdown[LOCAL_ACC_W][HIT] = 0
	Total_core_cache_stats_breakdown[LOCAL_ACC_W][HIT_RESERVED] = 0
	Total_core_cache_stats_breakdown[LOCAL_ACC_W][MISS] = 0
	Total_core_cache_stats_breakdown[LOCAL_ACC_W][RESERVATION_FAIL] = 0
	Total_core_cache_stats_breakdown[LOCAL_ACC_W][SECTOR_MISS] = 0
	Total_core_cache_stats_breakdown[LOCAL_ACC_W][MSHR_HIT] = 0
	Total_core_cache_stats_breakdown[L1_WRBK_ACC][HIT] = 0
	Total_core_cache_stats_breakdown[L1_WRBK_ACC][HIT_RESERVED] = 0
	Total_core_cache_stats_breakdown[L1_WRBK_ACC][MISS] = 0
	Total_core_cache_stats_breakdown[L1_WRBK_ACC][RESERVATION_FAIL] = 0
	Total_core_cache_stats_breakdown[L1_WRBK_ACC][SECTOR_MISS] = 0
	Total_core_cache_stats_breakdown[L1_WRBK_ACC][MSHR_HIT] = 0
	Total_core_cache_stats_breakdown[L2_WRBK_ACC][HIT] = 0
	Total_core_cache_stats_breakdown[L2_WRBK_ACC][HIT_RESERVED] = 0
	Total_core_cache_stats_breakdown[L2_WRBK_ACC][MISS] = 0
	Total_core_cache_stats_breakdown[L2_WRBK_ACC][RESERVATION_FAIL] = 0
	Total_core_cache_stats_breakdown[L2_WRBK_ACC][SECTOR_MISS] = 0
	Total_core_cache_stats_breakdown[L2_WRBK_ACC][MSHR_HIT] = 0
	Total_core_cache_stats_breakdown[INST_ACC_R][HIT] = 0
	Total_core_cache_stats_breakdown[INST_ACC_R][HIT_RESERVED] = 0
	Total_core_cache_stats_breakdown[INST_ACC_R][MISS] = 0
	Total_core_cache_stats_breakdown[INST_ACC_R][RESERVATION_FAIL] = 0
	Total_core_cache_stats_breakdown[INST_ACC_R][SECTOR_MISS] = 0
	Total_core_cache_stats_breakdown[INST_ACC_R][MSHR_HIT] = 0
	Total_core_cache_stats_breakdown[L1_WR_ALLOC_R][HIT] = 0
	Total_core_cache_stats_breakdown[L1_WR_ALLOC_R][HIT_RESERVED] = 0
	Total_core_cache_stats_breakdown[L1_WR_ALLOC_R][MISS] = 0
	Total_core_cache_stats_breakdown[L1_WR_ALLOC_R][RESERVATION_FAIL] = 0
	Total_core_cache_stats_breakdown[L1_WR_ALLOC_R][SECTOR_MISS] = 0
	Total_core_cache_stats_breakdown[L1_WR_ALLOC_R][MSHR_HIT] = 0
	Total_core_cache_stats_breakdown[L2_WR_ALLOC_R][HIT] = 0
	Total_core_cache_stats_breakdown[L2_WR_ALLOC_R][HIT_RESERVED] = 0
	Total_core_cache_stats_breakdown[L2_WR_ALLOC_R][MISS] = 0
	Total_core_cache_stats_breakdown[L2_WR_ALLOC_R][RESERVATION_FAIL] = 0
	Total_core_cache_stats_breakdown[L2_WR_ALLOC_R][SECTOR_MISS] = 0
	Total_core_cache_stats_breakdown[L2_WR_ALLOC_R][MSHR_HIT] = 0
	Total_core_cache_stats_breakdown[GLOBAL_ACC_R][TOTAL_ACCESS] = 2555904
	Total_core_cache_stats_breakdown[GLOBAL_ACC_W][TOTAL_ACCESS] = 2622720

Total_core_cache_fail_stats:
	Total_core_cache_fail_stats_breakdown[GLOBAL_ACC_R][MISS_QUEUE_FULL] = 22517
	Total_core_cache_fail_stats_breakdown[GLOBAL_ACC_W][MISS_QUEUE_FULL] = 1688
ctas_completed 16, Shader 0 warp_id issue ditsribution:
warp_id:
0, 1, 2, 3, 4, 5, 6, 7, 
distro:
13333, 13333, 13333, 13333, 13333, 13333, 13333, 13333, 
gpgpu_n_tot_thrd_icount = 54611968
gpgpu_n_tot_w_icount = 1706624
gpgpu_n_stall_shd_mem = 983296
gpgpu_n_mem_read_local = 0
gpgpu_n_mem_write_local = 0
gpgpu_n_mem_read_global = 2154496
gpgpu_n_mem_write_global = 2622720
gpgpu_n_mem_texture = 0
gpgpu_n_mem_const = 0
gpgpu_n_load_insn  = 16777216
gpgpu_n_store_insn = 16785408
gpgpu_n_shmem_insn = 0
gpgpu_n_sstarr_insn = 0
gpgpu_n_tex_insn = 0
gpgpu_n_const_mem_insn = 0
gpgpu_n_param_mem_insn = 8192
gpgpu_n_shmem_bkconflict = 0
gpgpu_n_cache_bkconflict = 0
gpgpu_n_intrawarp_mshr_merge = 0
gpgpu_n_cmem_portconflict = 0
gpgpu_stall_shd_mem[c_mem][resource_stall] = 0
gpgpu_stall_shd_mem[s_mem][bk_conf] = 0
gpgpu_stall_shd_mem[gl_mem][resource_stall] = 0
gpgpu_stall_shd_mem[gl_mem][coal_stall] = 983296
gpgpu_stall_shd_mem[gl_mem][data_port_stall] = 0
gpu_reg_bank_conflict_stalls = 0
Warp Occupancy Distribution:
Stall:195	W0_Idle:21111	W0_Scoreboard:96846594	W1:0	W2:0	W3:0	W4:0	W5:0	W6:0	W7:0	W8:0	W9:0	W10:0	W11:0	W12:0	W13:0	W14:0	W15:0	W16:0	W17:0	W18:0	W19:0	W20:0	W21:0	W22:0	W23:0	W24:0	W25:0	W26:0	W27:0	W28:0	W29:0	W30:0	W31:0	W32:1706624
single_issue_nums: WS0:426656	WS1:426656	WS2:426656	WS3:426656	
dual_issue_nums: WS0:0	WS1:0	WS2:0	WS3:0	
traffic_breakdown_coretomem[GLOBAL_ACC_R] = 17235968 {8:2154496,}
traffic_breakdown_coretomem[GLOBAL_ACC_W] = 104908800 {40:2622720,}
traffic_breakdown_memtocore[GLOBAL_ACC_R] = 86179840 {40:2154496,}
traffic_breakdown_memtocore[GLOBAL_ACC_W] = 20981760 {8:2622720,}
maxmflatency = 532 
max_icnt2mem_latency = 187 
maxmrqlatency = 47 
max_icnt2sh_latency = 24 
averagemflatency = 288 
avg_icnt2mem_latency = 39 
avg_mrq_latency = 3 
avg_icnt2sh_latency = 2 
mrq_lat_table:1197023 	274286 	257379 	179407 	188209 	1361 	0 	0 	0 	0 	0 	0 	0 	0 	0 	0 	0 	0 	0 	0 	0 	0 	0 	0 	0 	0 	0 	0 	0 	0 	0 	0 	
dq_lat_table:0 	0 	0 	0 	0 	0 	0 	0 	0 	0 	0 	0 	0 	0 	0 	0 	0 	0 	0 	0 	0 	0 	0 	0 	0 	0 	0 	0 	0 	0 	0 	0 	
mf_lat_table:0 	0 	0 	0 	0 	0 	0 	2629911 	2147258 	47 	0 	0 	0 	0 	0 	0 	0 	0 	0 	0 	0 	0 	0 	0 	0 	0 	0 	0 	0 	0 	0 	0 	
icnt2mem_lat_table:0 	0 	0 	0 	0 	4774190 	2396 	630 	0 	0 	0 	0 	0 	0 	0 	0 	0 	0 	0 	0 	0 	0 	0 	0 	
icnt2sh_lat_table:0 	4570231 	203225 	3735 	25 	0 	0 	0 	0 	0 	0 	0 	0 	0 	0 	0 	0 	0 	0 	0 	0 	0 	0 	0 	
mf_lat_pw_table:0 	0 	0 	0 	0 	0 	0 	109 	15290 	1 	0 	0 	0 	0 	0 	0 	0 	0 	0 	0 	0 	0 	0 	0 	0 	0 	0 	0 	0 	0 	0 	0 	
maximum concurrent accesses to same row:
dram[0]:        64        64        64        64        64        64        64        64        64        64        64        64        64        64        64        64 
dram[1]:        64        64        64        64        64        64        64        64        64        64        64        64        64        64        64        64 
dram[2]:        64        64        64        64        64        64        64        64        64        64        64        64        64        64        64        64 
dram[3]:        64        64        64        64        64        64        64        64        64        64        64        64        64        64        64        64 
dram[4]:        64        64        64        64        64        64        64        64        64        64        64        64        64        64        64        64 
dram[5]:        64        64        64        64        64        64        64        64        64        64        64        64        64        64        64        64 
dram[6]:        64        64        64        64        64        64        64        64        64        64        64        64        64        64        64        64 
dram[7]:        64        64        64        64        64        64        64        64        64        64        64        64        64        64        64        64 
dram[8]:        64        64        64        64        64        64        64        64        64        64        64        64        64        64        64        64 
dram[9]:        64        64        64        64        64        64        64        64        64        64        64        64        64        64        64        64 
dram[10]:        64        64        64        64        64        64        64        64        64        64        64        64        64        64        64        64 
dram[11]:        64        64        64        64        64        64        64        64        64        64        64        64        64        64        64        64 
maximum service time to same row:
dram[0]:     13990     14070     15117     15196     16256     16323     17375     17384     18523     18532     19659     19668     20787     20796     21904     21913 
dram[1]:     14204     14216     15335     15350     16467     16484     17466     17616     18587     18740     19707     19872     20825     20997     21942     22126 
dram[2]:     14242     14220     15396     15349     16520     16474     17629     17658     18790     18791     19910     19928     21041     21051     22178     22182 
dram[3]:     14184     14180     15316     15312     16448     16444     17614     17599     18761     18732     19893     19862     21022     20990     22151     22118 
dram[4]:     14184     14118     15314     15246     16446     16376     17598     17595     18731     18725     19861     19858     20988     20987     22116     22115 
dram[5]:     14114     14133     15242     15267     16372     16400     17517     17516     18654     18653     19792     19791     20923     20921     22053     22051 
dram[6]:     14176     14199     15305     15340     16432     16477     17548     17572     18667     18701     19805     19829     20936     20955     22061     22085 
dram[7]:     14222     14218     15355     15351     16493     16486     17626     17637     18757     18776     19881     19899     20997     21016     22125     22138 
dram[8]:     14240     14115     15368     15243     16507     16372     17636     17644     18781     18773     19916     19904     21036     21028     22174     22149 
dram[9]:     14111     14132     15239     15263     16368     16400     17513     17512     18649     18648     19787     19786     20919     20917     22051     22049 
dram[10]:     14187     14182     15318     15314     16450     16446     17547     17593     18672     18728     19800     19847     20930     20968     22061     22091 
dram[11]:     14216     14210     15370     15340     16505     16469     17592     17662     18732     18784     19859     19914     20979     21031     22104     22160 
average row accesses per activate:
dram[0]: 64.235291 64.235291 64.376472 64.376472 64.376472 64.376472 64.376472 64.376472 64.376472 64.376472 64.376472 64.376472 64.005882 64.378700 64.378700 64.378700 
dram[1]: 64.235291 64.235291 64.376472 64.376472 64.376472 64.376472 64.376472 64.376472 64.376472 64.376472 64.376472 64.376472 64.378700 64.378700 64.378700 64.378700 
dram[2]: 64.235291 64.235291 64.376472 64.376472 64.376472 64.376472 64.376472 64.376472 64.376472 64.376472 64.376472 64.376472 64.378700 64.378700 64.378700 64.378700 
dram[3]: 64.235291 64.235291 64.376472 64.376472 64.376472 64.376472 64.376472 64.376472 64.376472 64.376472 64.376472 64.376472 64.378700 64.378700 64.378700 64.378700 
dram[4]: 64.258827 64.258827 64.376472 64.376472 64.376472 64.376472 64.376472 64.376472 64.376472 64.376472 64.376472 64.376472 64.378700 64.378700 64.378700 64.378700 
dram[5]: 64.258827 64.258827 64.376472 64.376472 64.376472 64.376472 64.376472 64.376472 64.376472 64.376472 64.376472 64.376472 64.378700 64.378700 64.378700 64.378700 
dram[6]: 64.258827 64.258827 64.376472 64.376472 64.376472 64.376472 64.376472 64.376472 64.376472 64.376472 64.376472 64.376472 64.378700 64.378700 64.378700 64.378700 
dram[7]: 64.258827 64.258827 64.376472 64.376472 64.376472 64.376472 64.376472 64.376472 64.376472 64.376472 64.376472 64.376472 64.378700 64.378700 64.378700 64.378700 
dram[8]: 64.258827 64.258827 64.376472 64.376472 64.376472 64.376472 64.376472 64.376472 64.376472 64.376472 64.376472 64.376472 64.378700 64.378700 64.378700 64.378700 
dram[9]: 64.258827 64.258827 64.376472 64.376472 64.376472 64.376472 64.376472 64.376472 64.376472 64.376472 64.376472 64.376472 64.378700 64.378700 64.378700 64.378700 
dram[10]: 64.258827 64.258827 64.376472 64.376472 64.376472 64.376472 64.376472 64.376472 64.376472 64.376472 64.376472 64.376472 64.378700 64.378700 64.378700 64.378700 
dram[11]: 64.258827 64.258827 64.376472 64.376472 64.376472 64.376472 64.376472 64.376472 64.376472 64.376472 64.376472 64.376472 64.378700 64.378700 64.378700 64.378700 
average row locality = 2097665/32593 = 64.359375
number of total memory accesses made:
dram[0]:         0         0         0         0         0         0         0         0         0         0         0         0         0         0         0         0 
dram[1]:         0         0         0         0         0         0         0         0         0         0         0         0         0         0         0         0 
dram[2]:         0         0         0         0         0         0         0         0         0         0         0         0         0         0         0         0 
dram[3]:         0         0         0         0         0         0         0         0         0         0         0         0         0         0         0         0 
dram[4]:         0         0         0         0         0         0         0         0         0         0         0         0         0         0         0         0 
dram[5]:         0         0         0         0         0         0         0         0         0         0         0         0         0         0         0         0 
dram[6]:         0         0         0         0         0         0         0         0         0         0         0         0         0         0         0         0 
dram[7]:         0         0         0         0         0         0         0         0         0         0         0         0         0         0         0         0 
dram[8]:         0         0         0         0         0         0         0         0         0         0         0         0         0         0         0         0 
dram[9]:         0         0         0         0         0         0         0         0         0         0         0         0         0         0         0         0 
dram[10]:         0         0         0         0         0         0         0         0         0         0         0         0         0         0         0         0 
dram[11]:         0         0         0         0         0         0         0         0         0         0         0         0         0         0         0         0 
total accesses: 0
min_bank_accesses = 0!
min_chip_accesses = 0!
number of total read accesses:
dram[0]:     10920     10920     10944     10944     10944     10944     10944     10944     10944     10944     10944     10944     10881     10880     10880     10880 
dram[1]:     10920     10920     10944     10944     10944     10944     10944     10944     10944     10944     10944     10944     10880     10880     10880     10880 
dram[2]:     10920     10920     10944     10944     10944     10944     10944     10944     10944     10944     10944     10944     10880     10880     10880     10880 
dram[3]:     10920     10920     10944     10944     10944     10944     10944     10944     10944     10944     10944     10944     10880     10880     10880     10880 
dram[4]:     10924     10924     10944     10944     10944     10944     10944     10944     10944     10944     10944     10944     10880     10880     10880     10880 
dram[5]:     10924     10924     10944     10944     10944     10944     10944     10944     10944     10944     10944     10944     10880     10880     10880     10880 
dram[6]:     10924     10924     10944     10944     10944     10944     10944     10944     10944     10944     10944     10944     10880     10880     10880     10880 
dram[7]:     10924     10924     10944     10944     10944     10944     10944     10944     10944     10944     10944     10944     10880     10880     10880     10880 
dram[8]:     10924     10924     10944     10944     10944     10944     10944     10944     10944     10944     10944     10944     10880     10880     10880     10880 
dram[9]:     10924     10924     10944     10944     10944     10944     10944     10944     10944     10944     10944     10944     10880     10880     10880     10880 
dram[10]:     10924     10924     10944     10944     10944     10944     10944     10944     10944     10944     10944     10944     10880     10880     10880     10880 
dram[11]:     10924     10924     10944     10944     10944     10944     10944     10944     10944     10944     10944     10944     10880     10880     10880     10880 
total dram reads = 2097665
bank skew: 10944/10880 = 1.01
chip skew: 174808/174800 = 1.00
number of total write accesses:
dram[0]:         0         0         0         0         0         0         0         0         0         0         0         0         0         0         0         0 
dram[1]:         0         0         0         0         0         0         0         0         0         0         0         0         0         0         0         0 
dram[2]:         0         0         0         0         0         0         0         0         0         0         0         0         0         0         0         0 
dram[3]:         0         0         0         0         0         0         0         0         0         0         0         0         0         0         0         0 
dram[4]:         0         0         0         0         0         0         0         0         0         0         0         0         0         0         0         0 
dram[5]:         0         0         0         0         0         0         0         0         0         0         0         0         0         0         0         0 
dram[6]:         0         0         0         0         0         0         0         0         0         0         0         0         0         0         0         0 
dram[7]:         0         0         0         0         0         0         0         0         0         0         0         0         0         0         0         0 
dram[8]:         0         0         0         0         0         0         0         0         0         0         0         0         0         0         0         0 
dram[9]:         0         0         0         0         0         0         0         0         0         0         0         0         0         0         0         0 
dram[10]:         0         0         0         0         0         0         0         0         0         0         0         0         0         0         0         0 
dram[11]:         0         0         0         0         0         0         0         0         0         0         0         0         0         0         0         0 
total dram writes = 0
min_bank_accesses = 0!
min_chip_accesses = 0!
average mf latency per bank:
dram[0]:        360       358       361       360       358       357       361       360      2571      2572       358       357       361       360       359       359
dram[1]:        359       359       360       361       357       357       360       360      2572      2572       358       357       361       360       359       359
dram[2]:        359       360       361       361       358       358       361       361      2575      2575       358       359       361       362       360       361
dram[3]:        361       361       363       363       359       360       362       363      2575      2574       359       360       362       363       361       362
dram[4]:        361       360       364       362       360       359       363       362      2573      2574       360       359       363       362       361       360
dram[5]:        360       361       362       363       359       360       362       362      2574      2575       359       359       363       362       361       360
dram[6]:        361       361       363       363       360       360       363       362      2576      2573       360       360       363       363       361       362
dram[7]:        362       362       364       363       360       360       363       364      2928      3015       360       360       363       363       362       362
dram[8]:        362       361       364       363       361       360       363       363      3017      3019       360       359       364       363       362       361
dram[9]:        361       361       362       363       359       360       362       362      3017      3017       359       359       363       362       361       361
dram[10]:        361       361       363       363       359       360       363       363      3020      3016       359       359       363       363       361       361
dram[11]:        362       361       363       363       360       360       363       363      2661      2573       359       360       363       363       361       361
maximum mf latency per bank:
dram[0]:        499       486       396       387       398       380       385       384       391       387       386       384       391       383       396       382
dram[1]:        490       498       386       396       396       385       386       385       387       380       388       392       383       384       393       408
dram[2]:        498       498       399       386       394       389       410       393       380       381       379       380       384       397       401       399
dram[3]:        506       503       396       404       386       384       382       387       380       394       381       387       390       384       388       384
dram[4]:        507       529       392       382       391       392       390       389       392       394       386       382       390       389       410       423
dram[5]:        526       532       384       382       388       382       405       393       383       380       381       385       390       404       416       383
dram[6]:        527       528       388       394       388       387       400       394       385       384       390       384       393       384       381       386
dram[7]:        532       530       388       397       392       398       391       397       386       389       382       380       389       392       386       382
dram[8]:        504       491       386       385       389       388       390       391       394       388       378       384       400       405       382       379
dram[9]:        494       498       387       389       380       384       398       389       383       391       380       383       410       391       394       392
dram[10]:        503       504       391       390       387       384       394       389       386       384       394       389       389       399       390       391
dram[11]:        516       512       390       392       390       388       398       394       386       392       391       395       397       403       401       386

Number of Memory Banks Accessed per Memory Operation per Warp (from 0):
0	0	0	0	0	0	0	0	0	0	0	0	0	0	0	0	0	0	0	0	0	0	0	0	0	0	0	0	0	0	0	0	0	0	0	0	0	0	0	0	0	0	0	0	0	0	0	0	0	0	0	0	0	0	0	0	0	0	0	0	0	0	0	0	0	0	0	0	0	0	0	0	0	0	0	0	0	0	0	0	0	0	0	0	0	0	0	0	0	0	0	0	0	0	0	0	0	0	0	0	0	0	0	0	0	0	0	0	0	0	0	0	0	0	0	0	0	0	0	0	0	0	0	0	0	0	0	0	0	0	0	0	0	0	0	0	0	0	0	0	0	0	0	0	0	0	0	0	0	0	0	0	0	0	0	0	0	0	0	0	0	0	0	0	0	0	0	0	0	0	0	0	0	0	0	0	0	0	0	0	0	0	0	0	0	0	0	0	0	0	0	0	
Average # of Memory Banks Accessed per Memory Operation per Warp=-nan

position of mrq chosen
0	0	0	0	0	0	0	0	0	0	0	0	0	0	0	0	0	0	0	0	0	0	0	0	0	0	0	0	0	0	0	0	0	0	0	0	0	0	0	0	0	0	0	0	0	0	0	0	0	0	0	0	0	0	0	0	0	0	0	0	0	0	0	0	

average position of mrq chosen = -nan
Memory Partition 0: 
Cache L2_bank_000:
MSHR contents

Cache L2_bank_001:
MSHR contents

In Dram Latency Queue (total = 0): 
DRAM[0]: 16 bks, busW=2 BL=16 CL=24, tRRD=12 tCCD=4, tRCD=24 tRAS=55 tRP=24 tRC=78
n_cmd=3963095 n_nop=3782866 n_act=2733 n_pre=2717 n_ref_event=0 n_req=174801 n_rd=174801 n_rd_L2_A=0 n_write=0 n_wr_bk=0 bw_util=0.1764
n_activity=1263071 dram_eff=0.5536
bk0: 10920a 3908696i bk1: 10920a 3911593i bk2: 10944a 3909978i bk3: 10944a 3912061i bk4: 10944a 3909676i bk5: 10944a 3911413i bk6: 10944a 3908655i bk7: 10944a 3911315i bk8: 10944a 3910273i bk9: 10944a 3911486i bk10: 10944a 3909104i bk11: 10944a 3911453i bk12: 10881a 3910237i bk13: 10880a 3912247i bk14: 10880a 3910861i bk15: 10880a 3912417i 

------------------------------------------------------------------------

Row_Buffer_Locality = 0.984457
Row_Buffer_Locality_read = 0.984457
Row_Buffer_Locality_write = -nan
Bank_Level_Parallism = 1.270175
Bank_Level_Parallism_Col = 1.236816
Bank_Level_Parallism_Ready = 1.020217
write_to_read_ratio_blp_rw_average = 0.000000
GrpLevelPara = 1.236816 

BW Util details:
bwutil = 0.176429 
total_CMD = 3963095 
util_bw = 699204 
Wasted_Col = 192190 
Wasted_Row = 25726 
Idle = 3045975 

BW Util Bottlenecks: 
RCDc_limit = 44445 
RCDWRc_limit = 0 
WTRc_limit = 0 
RTWc_limit = 0 
CCDLc_limit = 154159 
rwq = 0 
CCDLc_limit_alone = 154159 
WTRc_limit_alone = 0 
RTWc_limit_alone = 0 

Commands details: 
total_CMD = 3963095 
n_nop = 3782866 
Read = 174801 
Write = 0 
L2_Alloc = 0 
L2_WB = 0 
n_act = 2733 
n_pre = 2717 
n_ref = 0 
n_req = 174801 
total_req = 174801 

Dual Bus Interface Util: 
issued_total_row = 5450 
issued_total_col = 174801 
Row_Bus_Util =  0.001375 
CoL_Bus_Util = 0.044107 
Either_Row_CoL_Bus_Util = 0.045477 
Issued_on_Two_Bus_Simul_Util = 0.000006 
issued_two_Eff = 0.000122 
queue_avg = 0.229695 


dram_util_bins: 0 0 0 0 0 0 0 0 0 0
dram_eff_bins: 0 0 0 0 0 0 0 0 0 0
mrqq: max=16 avg=0.229695
Memory Partition 1: 
Cache L2_bank_002:
MSHR contents

Cache L2_bank_003:
MSHR contents

In Dram Latency Queue (total = 0): 
DRAM[1]: 16 bks, busW=2 BL=16 CL=24, tRRD=12 tCCD=4, tRCD=24 tRAS=55 tRP=24 tRC=78
n_cmd=3963095 n_nop=3782874 n_act=2732 n_pre=2716 n_ref_event=0 n_req=174800 n_rd=174800 n_rd_L2_A=0 n_write=0 n_wr_bk=0 bw_util=0.1764
n_activity=1328591 dram_eff=0.5263
bk0: 10920a 3911839i bk1: 10920a 3912008i bk2: 10944a 3912676i bk3: 10944a 3912389i bk4: 10944a 3912311i bk5: 10944a 3911901i bk6: 10944a 3912257i bk7: 10944a 3912027i bk8: 10944a 3912755i bk9: 10944a 3912809i bk10: 10944a 3911354i bk11: 10944a 3912281i bk12: 10880a 3912618i bk13: 10880a 3912969i bk14: 10880a 3912659i bk15: 10880a 3912580i 

------------------------------------------------------------------------

Row_Buffer_Locality = 0.984462
Row_Buffer_Locality_read = 0.984462
Row_Buffer_Locality_write = -nan
Bank_Level_Parallism = 1.246011
Bank_Level_Parallism_Col = 1.210069
Bank_Level_Parallism_Ready = 1.013723
write_to_read_ratio_blp_rw_average = 0.000000
GrpLevelPara = 1.210069 

BW Util details:
bwutil = 0.176428 
total_CMD = 3963095 
util_bw = 699200 
Wasted_Col = 198924 
Wasted_Row = 25548 
Idle = 3039423 

BW Util Bottlenecks: 
RCDc_limit = 45947 
RCDWRc_limit = 0 
WTRc_limit = 0 
RTWc_limit = 0 
CCDLc_limit = 160259 
rwq = 0 
CCDLc_limit_alone = 160259 
WTRc_limit_alone = 0 
RTWc_limit_alone = 0 

Commands details: 
total_CMD = 3963095 
n_nop = 3782874 
Read = 174800 
Write = 0 
L2_Alloc = 0 
L2_WB = 0 
n_act = 2732 
n_pre = 2716 
n_ref = 0 
n_req = 174800 
total_req = 174800 

Dual Bus Interface Util: 
issued_total_row = 5448 
issued_total_col = 174800 
Row_Bus_Util =  0.001375 
CoL_Bus_Util = 0.044107 
Either_Row_CoL_Bus_Util = 0.045475 
Issued_on_Two_Bus_Simul_Util = 0.000007 
issued_two_Eff = 0.000150 
queue_avg = 0.235215 


dram_util_bins: 0 0 0 0 0 0 0 0 0 0
dram_eff_bins: 0 0 0 0 0 0 0 0 0 0
mrqq: max=16 avg=0.235215
Memory Partition 2: 
Cache L2_bank_004:
MSHR contents

Cache L2_bank_005:
MSHR contents

In Dram Latency Queue (total = 0): 
DRAM[2]: 16 bks, busW=2 BL=16 CL=24, tRRD=12 tCCD=4, tRCD=24 tRAS=55 tRP=24 tRC=78
n_cmd=3963095 n_nop=3782874 n_act=2732 n_pre=2716 n_ref_event=0 n_req=174800 n_rd=174800 n_rd_L2_A=0 n_write=0 n_wr_bk=0 bw_util=0.1764
n_activity=1231045 dram_eff=0.568
bk0: 10920a 3909686i bk1: 10920a 3908471i bk2: 10944a 3910735i bk3: 10944a 3909187i bk4: 10944a 3909789i bk5: 10944a 3908634i bk6: 10944a 3910719i bk7: 10944a 3909347i bk8: 10944a 3911095i bk9: 10944a 3908912i bk10: 10944a 3909844i bk11: 10944a 3908617i bk12: 10880a 3911289i bk13: 10880a 3909758i bk14: 10880a 3911379i bk15: 10880a 3909289i 

------------------------------------------------------------------------

Row_Buffer_Locality = 0.984462
Row_Buffer_Locality_read = 0.984462
Row_Buffer_Locality_write = -nan
Bank_Level_Parallism = 1.275492
Bank_Level_Parallism_Col = 1.241104
Bank_Level_Parallism_Ready = 1.015216
write_to_read_ratio_blp_rw_average = 0.000000
GrpLevelPara = 1.241104 

BW Util details:
bwutil = 0.176428 
total_CMD = 3963095 
util_bw = 699200 
Wasted_Col = 193002 
Wasted_Row = 25838 
Idle = 3045055 

BW Util Bottlenecks: 
RCDc_limit = 43566 
RCDWRc_limit = 0 
WTRc_limit = 0 
RTWc_limit = 0 
CCDLc_limit = 157761 
rwq = 0 
CCDLc_limit_alone = 157761 
WTRc_limit_alone = 0 
RTWc_limit_alone = 0 

Commands details: 
total_CMD = 3963095 
n_nop = 3782874 
Read = 174800 
Write = 0 
L2_Alloc = 0 
L2_WB = 0 
n_act = 2732 
n_pre = 2716 
n_ref = 0 
n_req = 174800 
total_req = 174800 

Dual Bus Interface Util: 
issued_total_row = 5448 
issued_total_col = 174800 
Row_Bus_Util =  0.001375 
CoL_Bus_Util = 0.044107 
Either_Row_CoL_Bus_Util = 0.045475 
Issued_on_Two_Bus_Simul_Util = 0.000007 
issued_two_Eff = 0.000150 
queue_avg = 0.315094 


dram_util_bins: 0 0 0 0 0 0 0 0 0 0
dram_eff_bins: 0 0 0 0 0 0 0 0 0 0
mrqq: max=21 avg=0.315094
Memory Partition 3: 
Cache L2_bank_006:
MSHR contents

Cache L2_bank_007:
MSHR contents

In Dram Latency Queue (total = 0): 
DRAM[3]: 16 bks, busW=2 BL=16 CL=24, tRRD=12 tCCD=4, tRCD=24 tRAS=55 tRP=24 tRC=78
n_cmd=3963095 n_nop=3782865 n_act=2732 n_pre=2716 n_ref_event=0 n_req=174800 n_rd=174800 n_rd_L2_A=0 n_write=0 n_wr_bk=0 bw_util=0.1764
n_activity=1127286 dram_eff=0.6203
bk0: 10920a 3906635i bk1: 10920a 3905409i bk2: 10944a 3907572i bk3: 10944a 3905597i bk4: 10944a 3906689i bk5: 10944a 3904620i bk6: 10944a 3906720i bk7: 10944a 3906655i bk8: 10944a 3907598i bk9: 10944a 3905466i bk10: 10944a 3906300i bk11: 10944a 3905767i bk12: 10880a 3907348i bk13: 10880a 3905984i bk14: 10880a 3907592i bk15: 10880a 3906213i 

------------------------------------------------------------------------

Row_Buffer_Locality = 0.984462
Row_Buffer_Locality_read = 0.984462
Row_Buffer_Locality_write = -nan
Bank_Level_Parallism = 1.311863
Bank_Level_Parallism_Col = 1.274811
Bank_Level_Parallism_Ready = 1.017721
write_to_read_ratio_blp_rw_average = 0.000000
GrpLevelPara = 1.274811 

BW Util details:
bwutil = 0.176428 
total_CMD = 3963095 
util_bw = 699200 
Wasted_Col = 188168 
Wasted_Row = 23770 
Idle = 3051957 

BW Util Bottlenecks: 
RCDc_limit = 39317 
RCDWRc_limit = 0 
WTRc_limit = 0 
RTWc_limit = 0 
CCDLc_limit = 158840 
rwq = 0 
CCDLc_limit_alone = 158840 
WTRc_limit_alone = 0 
RTWc_limit_alone = 0 

Commands details: 
total_CMD = 3963095 
n_nop = 3782865 
Read = 174800 
Write = 0 
L2_Alloc = 0 
L2_WB = 0 
n_act = 2732 
n_pre = 2716 
n_ref = 0 
n_req = 174800 
total_req = 174800 

Dual Bus Interface Util: 
issued_total_row = 5448 
issued_total_col = 174800 
Row_Bus_Util =  0.001375 
CoL_Bus_Util = 0.044107 
Either_Row_CoL_Bus_Util = 0.045477 
Issued_on_Two_Bus_Simul_Util = 0.000005 
issued_two_Eff = 0.000100 
queue_avg = 0.448104 


dram_util_bins: 0 0 0 0 0 0 0 0 0 0
dram_eff_bins: 0 0 0 0 0 0 0 0 0 0
mrqq: max=25 avg=0.448104
Memory Partition 4: 
Cache L2_bank_008:
MSHR contents

Cache L2_bank_009:
MSHR contents

In Dram Latency Queue (total = 0): 
DRAM[4]: 16 bks, busW=2 BL=16 CL=24, tRRD=12 tCCD=4, tRCD=24 tRAS=55 tRP=24 tRC=78
n_cmd=3963095 n_nop=3782856 n_act=2732 n_pre=2716 n_ref_event=0 n_req=174808 n_rd=174808 n_rd_L2_A=0 n_write=0 n_wr_bk=0 bw_util=0.1764
n_activity=1239519 dram_eff=0.5641
bk0: 10924a 3907453i bk1: 10924a 3909340i bk2: 10944a 3907894i bk3: 10944a 3909969i bk4: 10944a 3907269i bk5: 10944a 3909416i bk6: 10944a 3907848i bk7: 10944a 3910420i bk8: 10944a 3908630i bk9: 10944a 3910011i bk10: 10944a 3906996i bk11: 10944a 3909540i bk12: 10880a 3908598i bk13: 10880a 3910642i bk14: 10880a 3909185i bk15: 10880a 3910361i 

------------------------------------------------------------------------

Row_Buffer_Locality = 0.984463
Row_Buffer_Locality_read = 0.984463
Row_Buffer_Locality_write = -nan
Bank_Level_Parallism = 1.282043
Bank_Level_Parallism_Col = 1.248110
Bank_Level_Parallism_Ready = 1.011268
write_to_read_ratio_blp_rw_average = 0.000000
GrpLevelPara = 1.248110 

BW Util details:
bwutil = 0.176436 
total_CMD = 3963095 
util_bw = 699232 
Wasted_Col = 194594 
Wasted_Row = 26824 
Idle = 3042445 

BW Util Bottlenecks: 
RCDc_limit = 41985 
RCDWRc_limit = 0 
WTRc_limit = 0 
RTWc_limit = 0 
CCDLc_limit = 162514 
rwq = 0 
CCDLc_limit_alone = 162514 
WTRc_limit_alone = 0 
RTWc_limit_alone = 0 

Commands details: 
total_CMD = 3963095 
n_nop = 3782856 
Read = 174808 
Write = 0 
L2_Alloc = 0 
L2_WB = 0 
n_act = 2732 
n_pre = 2716 
n_ref = 0 
n_req = 174808 
total_req = 174808 

Dual Bus Interface Util: 
issued_total_row = 5448 
issued_total_col = 174808 
Row_Bus_Util =  0.001375 
CoL_Bus_Util = 0.044109 
Either_Row_CoL_Bus_Util = 0.045479 
Issued_on_Two_Bus_Simul_Util = 0.000004 
issued_two_Eff = 0.000094 
queue_avg = 0.437945 


dram_util_bins: 0 0 0 0 0 0 0 0 0 0
dram_eff_bins: 0 0 0 0 0 0 0 0 0 0
mrqq: max=22 avg=0.437945
Memory Partition 5: 
Cache L2_bank_010:
MSHR contents

Cache L2_bank_011:
MSHR contents

In Dram Latency Queue (total = 0): 
DRAM[5]: 16 bks, busW=2 BL=16 CL=24, tRRD=12 tCCD=4, tRCD=24 tRAS=55 tRP=24 tRC=78
n_cmd=3963095 n_nop=3782844 n_act=2732 n_pre=2716 n_ref_event=0 n_req=174808 n_rd=174808 n_rd_L2_A=0 n_write=0 n_wr_bk=0 bw_util=0.1764
n_activity=1306667 dram_eff=0.5351
bk0: 10924a 3910074i bk1: 10924a 3909578i bk2: 10944a 3910527i bk3: 10944a 3910317i bk4: 10944a 3910203i bk5: 10944a 3909965i bk6: 10944a 3910122i bk7: 10944a 3910974i bk8: 10944a 3910936i bk9: 10944a 3910400i bk10: 10944a 3909818i bk11: 10944a 3910192i bk12: 10880a 3910673i bk13: 10880a 3910871i bk14: 10880a 3910772i bk15: 10880a 3910453i 

------------------------------------------------------------------------

Row_Buffer_Locality = 0.984463
Row_Buffer_Locality_read = 0.984463
Row_Buffer_Locality_write = -nan
Bank_Level_Parallism = 1.270498
Bank_Level_Parallism_Col = 1.235580
Bank_Level_Parallism_Ready = 1.010553
write_to_read_ratio_blp_rw_average = 0.000000
GrpLevelPara = 1.235580 

BW Util details:
bwutil = 0.176436 
total_CMD = 3963095 
util_bw = 699232 
Wasted_Col = 197806 
Wasted_Row = 27902 
Idle = 3038155 

BW Util Bottlenecks: 
RCDc_limit = 43717 
RCDWRc_limit = 0 
WTRc_limit = 0 
RTWc_limit = 0 
CCDLc_limit = 164598 
rwq = 0 
CCDLc_limit_alone = 164598 
WTRc_limit_alone = 0 
RTWc_limit_alone = 0 

Commands details: 
total_CMD = 3963095 
n_nop = 3782844 
Read = 174808 
Write = 0 
L2_Alloc = 0 
L2_WB = 0 
n_act = 2732 
n_pre = 2716 
n_ref = 0 
n_req = 174808 
total_req = 174808 

Dual Bus Interface Util: 
issued_total_row = 5448 
issued_total_col = 174808 
Row_Bus_Util =  0.001375 
CoL_Bus_Util = 0.044109 
Either_Row_CoL_Bus_Util = 0.045482 
Issued_on_Two_Bus_Simul_Util = 0.000001 
issued_two_Eff = 0.000028 
queue_avg = 0.448114 


dram_util_bins: 0 0 0 0 0 0 0 0 0 0
dram_eff_bins: 0 0 0 0 0 0 0 0 0 0
mrqq: max=24 avg=0.448114
Memory Partition 6: 
Cache L2_bank_012:
MSHR contents

Cache L2_bank_013:
MSHR contents

In Dram Latency Queue (total = 0): 
DRAM[6]: 16 bks, busW=2 BL=16 CL=24, tRRD=12 tCCD=4, tRCD=24 tRAS=55 tRP=24 tRC=78
n_cmd=3963095 n_nop=3782843 n_act=2732 n_pre=2716 n_ref_event=0 n_req=174808 n_rd=174808 n_rd_L2_A=0 n_write=0 n_wr_bk=0 bw_util=0.1764
n_activity=1223856 dram_eff=0.5713
bk0: 10924a 3907917i bk1: 10924a 3907645i bk2: 10944a 3908322i bk3: 10944a 3907292i bk4: 10944a 3908448i bk5: 10944a 3907535i bk6: 10944a 3908736i bk7: 10944a 3907709i bk8: 10944a 3908531i bk9: 10944a 3907552i bk10: 10944a 3907654i bk11: 10944a 3907534i bk12: 10880a 3909036i bk13: 10880a 3908095i bk14: 10880a 3908856i bk15: 10880a 3907509i 

------------------------------------------------------------------------

Row_Buffer_Locality = 0.984463
Row_Buffer_Locality_read = 0.984463
Row_Buffer_Locality_write = -nan
Bank_Level_Parallism = 1.294328
Bank_Level_Parallism_Col = 1.259845
Bank_Level_Parallism_Ready = 1.010308
write_to_read_ratio_blp_rw_average = 0.000000
GrpLevelPara = 1.259845 

BW Util details:
bwutil = 0.176436 
total_CMD = 3963095 
util_bw = 699232 
Wasted_Col = 194244 
Wasted_Row = 27462 
Idle = 3042157 

BW Util Bottlenecks: 
RCDc_limit = 43027 
RCDWRc_limit = 0 
WTRc_limit = 0 
RTWc_limit = 0 
CCDLc_limit = 161752 
rwq = 0 
CCDLc_limit_alone = 161752 
WTRc_limit_alone = 0 
RTWc_limit_alone = 0 

Commands details: 
total_CMD = 3963095 
n_nop = 3782843 
Read = 174808 
Write = 0 
L2_Alloc = 0 
L2_WB = 0 
n_act = 2732 
n_pre = 2716 
n_ref = 0 
n_req = 174808 
total_req = 174808 

Dual Bus Interface Util: 
issued_total_row = 5448 
issued_total_col = 174808 
Row_Bus_Util =  0.001375 
CoL_Bus_Util = 0.044109 
Either_Row_CoL_Bus_Util = 0.045483 
Issued_on_Two_Bus_Simul_Util = 0.000001 
issued_two_Eff = 0.000022 
queue_avg = 0.485162 


dram_util_bins: 0 0 0 0 0 0 0 0 0 0
dram_eff_bins: 0 0 0 0 0 0 0 0 0 0
mrqq: max=26 avg=0.485162
Memory Partition 7: 
Cache L2_bank_014:
MSHR contents

Cache L2_bank_015:
MSHR contents

In Dram Latency Queue (total = 0): 
DRAM[7]: 16 bks, busW=2 BL=16 CL=24, tRRD=12 tCCD=4, tRCD=24 tRAS=55 tRP=24 tRC=78
n_cmd=3963095 n_nop=3782841 n_act=2732 n_pre=2716 n_ref_event=0 n_req=174808 n_rd=174808 n_rd_L2_A=0 n_write=0 n_wr_bk=0 bw_util=0.1764
n_activity=1136004 dram_eff=0.6155
bk0: 10924a 3905198i bk1: 10924a 3904760i bk2: 10944a 3905906i bk3: 10944a 3904933i bk4: 10944a 3906043i bk5: 10944a 3905318i bk6: 10944a 3905554i bk7: 10944a 3904768i bk8: 10944a 3906516i bk9: 10944a 3904325i bk10: 10944a 3904947i bk11: 10944a 3904461i bk12: 10880a 3906256i bk13: 10880a 3905396i bk14: 10880a 3906132i bk15: 10880a 3905074i 

------------------------------------------------------------------------

Row_Buffer_Locality = 0.984463
Row_Buffer_Locality_read = 0.984463
Row_Buffer_Locality_write = -nan
Bank_Level_Parallism = 1.321559
Bank_Level_Parallism_Col = 1.290574
Bank_Level_Parallism_Ready = 1.011023
write_to_read_ratio_blp_rw_average = 0.000000
GrpLevelPara = 1.290574 

BW Util details:
bwutil = 0.176436 
total_CMD = 3963095 
util_bw = 699232 
Wasted_Col = 189381 
Wasted_Row = 28743 
Idle = 3045739 

BW Util Bottlenecks: 
RCDc_limit = 43661 
RCDWRc_limit = 0 
WTRc_limit = 0 
RTWc_limit = 0 
CCDLc_limit = 156158 
rwq = 0 
CCDLc_limit_alone = 156158 
WTRc_limit_alone = 0 
RTWc_limit_alone = 0 

Commands details: 
total_CMD = 3963095 
n_nop = 3782841 
Read = 174808 
Write = 0 
L2_Alloc = 0 
L2_WB = 0 
n_act = 2732 
n_pre = 2716 
n_ref = 0 
n_req = 174808 
total_req = 174808 

Dual Bus Interface Util: 
issued_total_row = 5448 
issued_total_col = 174808 
Row_Bus_Util =  0.001375 
CoL_Bus_Util = 0.044109 
Either_Row_CoL_Bus_Util = 0.045483 
Issued_on_Two_Bus_Simul_Util = 0.000001 
issued_two_Eff = 0.000011 
queue_avg = 0.518793 


dram_util_bins: 0 0 0 0 0 0 0 0 0 0
dram_eff_bins: 0 0 0 0 0 0 0 0 0 0
mrqq: max=28 avg=0.518793
Memory Partition 8: 
Cache L2_bank_016:
MSHR contents

Cache L2_bank_017:
MSHR contents

In Dram Latency Queue (total = 0): 
DRAM[8]: 16 bks, busW=2 BL=16 CL=24, tRRD=12 tCCD=4, tRCD=24 tRAS=55 tRP=24 tRC=78
n_cmd=3963095 n_nop=3782840 n_act=2732 n_pre=2716 n_ref_event=0 n_req=174808 n_rd=174808 n_rd_L2_A=0 n_write=0 n_wr_bk=0 bw_util=0.1764
n_activity=1242092 dram_eff=0.5629
bk0: 10924a 3905879i bk1: 10924a 3908868i bk2: 10944a 3906979i bk3: 10944a 3909218i bk4: 10944a 3906156i bk5: 10944a 3908301i bk6: 10944a 3906474i bk7: 10944a 3909232i bk8: 10944a 3907371i bk9: 10944a 3909035i bk10: 10944a 3906564i bk11: 10944a 3907990i bk12: 10880a 3907136i bk13: 10880a 3909292i bk14: 10880a 3906925i bk15: 10880a 3909489i 

------------------------------------------------------------------------

Row_Buffer_Locality = 0.984463
Row_Buffer_Locality_read = 0.984463
Row_Buffer_Locality_write = -nan
Bank_Level_Parallism = 1.284723
Bank_Level_Parallism_Col = 1.259305
Bank_Level_Parallism_Ready = 1.009461
write_to_read_ratio_blp_rw_average = 0.000000
GrpLevelPara = 1.259305 

BW Util details:
bwutil = 0.176436 
total_CMD = 3963095 
util_bw = 699232 
Wasted_Col = 197911 
Wasted_Row = 34963 
Idle = 3030989 

BW Util Bottlenecks: 
RCDc_limit = 47042 
RCDWRc_limit = 0 
WTRc_limit = 0 
RTWc_limit = 0 
CCDLc_limit = 160696 
rwq = 0 
CCDLc_limit_alone = 160696 
WTRc_limit_alone = 0 
RTWc_limit_alone = 0 

Commands details: 
total_CMD = 3963095 
n_nop = 3782840 
Read = 174808 
Write = 0 
L2_Alloc = 0 
L2_WB = 0 
n_act = 2732 
n_pre = 2716 
n_ref = 0 
n_req = 174808 
total_req = 174808 

Dual Bus Interface Util: 
issued_total_row = 5448 
issued_total_col = 174808 
Row_Bus_Util =  0.001375 
CoL_Bus_Util = 0.044109 
Either_Row_CoL_Bus_Util = 0.045483 
Issued_on_Two_Bus_Simul_Util = 0.000000 
issued_two_Eff = 0.000006 
queue_avg = 0.490469 


dram_util_bins: 0 0 0 0 0 0 0 0 0 0
dram_eff_bins: 0 0 0 0 0 0 0 0 0 0
mrqq: max=20 avg=0.490469
Memory Partition 9: 
Cache L2_bank_018:
MSHR contents

Cache L2_bank_019:
MSHR contents

In Dram Latency Queue (total = 0): 
[...]

------------------------------------------------------------------------

Row_Buffer_Locality = 0.938368
Row_Buffer_Locality_read = 0.961608
Row_Buffer_Locality_write = 0.645964
Bank_Level_Parallism = 3.512043
Bank_Level_Parallism_Col = 3.166173
Bank_Level_Parallism_Ready = 1.672078
write_to_read_ratio_blp_rw_average = 0.252157
GrpLevelPara = 2.316605 

BW Util details:
bwutil = 0.282548 
total_CMD = 9785300 
util_bw = 2764820 
Wasted_Col = 690211 
Wasted_Row = 67870 
Idle = 6262399 

BW Util Bottlenecks: 
RCDc_limit = 175815 
RCDWRc_limit = 52012 
WTRc_limit = 455510 
RTWc_limit = 538783 
CCDLc_limit = 467358 
rwq = 0 
CCDLc_limit_alone = 413932 
WTRc_limit_alone = 429311 
RTWc_limit_alone = 511556 

Commands details: 
total_CMD = 9785300 
n_nop = 9027724 
Read = 524465 
Write = 0 
L2_Alloc = 0 
L2_WB = 166740 
n_act = 34909 
n_pre = 34893 
n_ref = 0 
n_req = 566150 
total_req = 691205 

Dual Bus Interface Util: 
issued_total_row = 69802 
issued_total_col = 691205 
Row_Bus_Util =  0.007133 
CoL_Bus_Util = 0.070637 
Either_Row_CoL_Bus_Util = 0.077420 
Issued_on_Two_Bus_Simul_Util = 0.000351 
issued_two_Eff = 0.004529 
queue_avg = 2.535085 


dram_util_bins: 0 0 0 0 0 0 0 0 0 0
dram_eff_bins: 0 0 0 0 0 0 0 0 0 0
mrqq: max=64 avg=2.53508
Memory Partition 7: 
Cache L2_bank_014:
MSHR contents

Cache L2_bank_015:
MSHR contents

In Dram Latency Queue (total = 0): 
DRAM[7]: 16 bks, busW=2 BL=16 CL=24, tRRD=12 tCCD=4, tRCD=24 tRAS=55 tRP=24 tRC=78
n_cmd=9785300 n_nop=9028294 n_act=34648 n_pre=34632 n_ref_event=0 n_req=566160 n_rd=524472 n_rd_L2_A=0 n_write=0 n_wr_bk=166752 bw_util=0.2826
n_activity=4013378 dram_eff=0.6889
bk0: 32772a 9007241i bk1: 32772a 8996594i bk2: 32832a 9131824i bk3: 32832a 9113380i bk4: 32832a 9120391i bk5: 32832a 9104897i bk6: 32832a 9109235i bk7: 32832a 9099420i bk8: 32856a 9119185i bk9: 32856a 9102152i bk10: 32832a 9056876i bk11: 32832a 9036791i bk12: 32640a 9133182i bk13: 32640a 9128444i bk14: 32640a 9131829i bk15: 32640a 9107765i 

------------------------------------------------------------------------

Row_Buffer_Locality = 0.938830
Row_Buffer_Locality_read = 0.961857
Row_Buffer_Locality_write = 0.649132
Bank_Level_Parallism = 3.499019
Bank_Level_Parallism_Col = 3.164773
Bank_Level_Parallism_Ready = 1.673337
write_to_read_ratio_blp_rw_average = 0.250683
GrpLevelPara = 2.320536 

BW Util details:
bwutil = 0.282556 
total_CMD = 9785300 
util_bw = 2764896 
Wasted_Col = 682118 
Wasted_Row = 70732 
Idle = 6267554 

BW Util Bottlenecks: 
RCDc_limit = 177550 
RCDWRc_limit = 52350 
WTRc_limit = 455030 
RTWc_limit = 544095 
CCDLc_limit = 456927 
rwq = 0 
CCDLc_limit_alone = 402948 
WTRc_limit_alone = 429123 
RTWc_limit_alone = 516023 

Commands details: 
total_CMD = 9785300 
n_nop = 9028294 
Read = 524472 
Write = 0 
L2_Alloc = 0 
L2_WB = 166752 
n_act = 34648 
n_pre = 34632 
n_ref = 0 
n_req = 566160 
total_req = 691224 

Dual Bus Interface Util: 
issued_total_row = 69280 
issued_total_col = 691224 
Row_Bus_Util =  0.007080 
CoL_Bus_Util = 0.070639 
Either_Row_CoL_Bus_Util = 0.077362 
Issued_on_Two_Bus_Simul_Util = 0.000357 
issued_two_Eff = 0.004621 
queue_avg = 2.553275 


dram_util_bins: 0 0 0 0 0 0 0 0 0 0
dram_eff_bins: 0 0 0 0 0 0 0 0 0 0
mrqq: max=64 avg=2.55328
Memory Partition 8: 
Cache L2_bank_016:
MSHR contents

Cache L2_bank_017:
MSHR contents

In Dram Latency Queue (total = 0): 
DRAM[8]: 16 bks, busW=2 BL=16 CL=24, tRRD=12 tCCD=4, tRCD=24 tRAS=55 tRP=24 tRC=78
n_cmd=9785300 n_nop=9028387 n_act=34580 n_pre=34564 n_ref_event=0 n_req=566160 n_rd=524472 n_rd_L2_A=0 n_write=0 n_wr_bk=166752 bw_util=0.2826
n_activity=4184746 dram_eff=0.6607
bk0: 32772a 9010469i bk1: 32772a 8995218i bk2: 32832a 9127593i bk3: 32832a 9121194i bk4: 32832a 9122068i bk5: 32832a 9110360i bk6: 32832a 9099567i bk7: 32832a 9092072i bk8: 32856a 9127876i bk9: 32856a 9104280i bk10: 32832a 9054165i bk11: 32832a 9038312i bk12: 32640a 9137758i bk13: 32640a 9134603i bk14: 32640a 9132137i bk15: 32640a 9118522i 

------------------------------------------------------------------------

Row_Buffer_Locality = 0.938950
Row_Buffer_Locality_read = 0.961899
Row_Buffer_Locality_write = 0.650235
Bank_Level_Parallism = 3.506033
Bank_Level_Parallism_Col = 3.178950
Bank_Level_Parallism_Ready = 1.673226
write_to_read_ratio_blp_rw_average = 0.251051
GrpLevelPara = 2.319534 

BW Util details:
bwutil = 0.282556 
total_CMD = 9785300 
util_bw = 2764896 
Wasted_Col = 690607 
Wasted_Row = 81297 
Idle = 6248500 

BW Util Bottlenecks: 
RCDc_limit = 181529 
RCDWRc_limit = 51497 
WTRc_limit = 458636 
RTWc_limit = 536231 
CCDLc_limit = 460762 
rwq = 0 
CCDLc_limit_alone = 406357 
WTRc_limit_alone = 432159 
RTWc_limit_alone = 508303 

Commands details: 
total_CMD = 9785300 
n_nop = 9028387 
Read = 524472 
Write = 0 
L2_Alloc = 0 
L2_WB = 166752 
n_act = 34580 
n_pre = 34564 
n_ref = 0 
n_req = 566160 
total_req = 691224 

Dual Bus Interface Util: 
issued_total_row = 69144 
issued_total_col = 691224 
Row_Bus_Util =  0.007066 
CoL_Bus_Util = 0.070639 
Either_Row_CoL_Bus_Util = 0.077352 
Issued_on_Two_Bus_Simul_Util = 0.000353 
issued_two_Eff = 0.004565 
queue_avg = 2.562937 


dram_util_bins: 0 0 0 0 0 0 0 0 0 0
dram_eff_bins: 0 0 0 0 0 0 0 0 0 0
mrqq: max=64 avg=2.56294
Memory Partition 9: 
Cache L2_bank_018:
MSHR contents

Cache L2_bank_019:
MSHR contents

In Dram Latency Queue (total = 0): 
DRAM[9]: 16 bks, busW=2 BL=16 CL=24, tRRD=12 tCCD=4, tRCD=24 tRAS=55 tRP=24 tRC=78
n_cmd=9785300 n_nop=9028200 n_act=34653 n_pre=34637 n_ref_event=0 n_req=566160 n_rd=524472 n_rd_L2_A=0 n_write=0 n_wr_bk=166752 bw_util=0.2826
n_activity=4342196 dram_eff=0.6368
bk0: 32772a 9017755i bk1: 32772a 8996360i bk2: 32832a 9137084i bk3: 32832a 9124013i bk4: 32832a 9128782i bk5: 32832a 9110915i bk6: 32832a 9118270i bk7: 32832a 9110796i bk8: 32856a 9124393i bk9: 32856a 9105912i bk10: 32832a 9060933i bk11: 32832a 9044194i bk12: 32640a 9141241i bk13: 32640a 9135988i bk14: 32640a 9134165i bk15: 32640a 9117135i 

------------------------------------------------------------------------

Row_Buffer_Locality = 0.938821
Row_Buffer_Locality_read = 0.961859
Row_Buffer_Locality_write = 0.648988
Bank_Level_Parallism = 3.497490
Bank_Level_Parallism_Col = 3.169484
Bank_Level_Parallism_Ready = 1.671775
write_to_read_ratio_blp_rw_average = 0.251517
GrpLevelPara = 2.312158 

BW Util details:
bwutil = 0.282556 
total_CMD = 9785300 
util_bw = 2764896 
Wasted_Col = 704761 
Wasted_Row = 84641 
Idle = 6231002 

BW Util Bottlenecks: 
RCDc_limit = 181709 
RCDWRc_limit = 50668 
WTRc_limit = 462766 
RTWc_limit = 536548 
CCDLc_limit = 474928 
rwq = 0 
CCDLc_limit_alone = 420491 
WTRc_limit_alone = 435202 
RTWc_limit_alone = 509675 

Commands details: 
total_CMD = 9785300 
n_nop = 9028200 
Read = 524472 
Write = 0 
L2_Alloc = 0 
L2_WB = 166752 
n_act = 34653 
n_pre = 34637 
n_ref = 0 
n_req = 566160 
total_req = 691224 

Dual Bus Interface Util: 
issued_total_row = 69290 
issued_total_col = 691224 
Row_Bus_Util =  0.007081 
CoL_Bus_Util = 0.070639 
Either_Row_CoL_Bus_Util = 0.077371 
Issued_on_Two_Bus_Simul_Util = 0.000349 
issued_two_Eff = 0.004509 
queue_avg = 2.538300 


dram_util_bins: 0 0 0 0 0 0 0 0 0 0
dram_eff_bins: 0 0 0 0 0 0 0 0 0 0
mrqq: max=64 avg=2.5383
Memory Partition 10: 
Cache L2_bank_020:
MSHR contents

Cache L2_bank_021:
MSHR contents

In Dram Latency Queue (total = 0): 
DRAM[10]: 16 bks, busW=2 BL=16 CL=24, tRRD=12 tCCD=4, tRCD=24 tRAS=55 tRP=24 tRC=78
n_cmd=9785300 n_nop=9028240 n_act=34657 n_pre=34641 n_ref_event=0 n_req=566160 n_rd=524472 n_rd_L2_A=0 n_write=0 n_wr_bk=166752 bw_util=0.2826
n_activity=4203113 dram_eff=0.6578
bk0: 32772a 9008564i bk1: 32772a 8989182i bk2: 32832a 9136384i bk3: 32832a 9122469i bk4: 32832a 9115129i bk5: 32832a 9107935i bk6: 32832a 9116336i bk7: 32832a 9098147i bk8: 32856a 9127435i bk9: 32856a 9104521i bk10: 32832a 9053378i bk11: 32832a 9035913i bk12: 32640a 9134644i bk13: 32640a 9134472i bk14: 32640a 9132581i bk15: 32640a 9115433i 

------------------------------------------------------------------------

Row_Buffer_Locality = 0.938814
Row_Buffer_Locality_read = 0.961885
Row_Buffer_Locality_write = 0.648556
Bank_Level_Parallism = 3.489049
Bank_Level_Parallism_Col = 3.165120
Bank_Level_Parallism_Ready = 1.673967
write_to_read_ratio_blp_rw_average = 0.249785
GrpLevelPara = 2.306209 

BW Util details:
bwutil = 0.282556 
total_CMD = 9785300 
util_bw = 2764896 
Wasted_Col = 705796 
Wasted_Row = 85395 
Idle = 6229213 

BW Util Bottlenecks: 
RCDc_limit = 183011 
RCDWRc_limit = 51811 
WTRc_limit = 457532 
RTWc_limit = 539035 
CCDLc_limit = 471688 
rwq = 0 
CCDLc_limit_alone = 417375 
WTRc_limit_alone = 430771 
RTWc_limit_alone = 511483 

Commands details: 
total_CMD = 9785300 
n_nop = 9028240 
Read = 524472 
Write = 0 
L2_Alloc = 0 
L2_WB = 166752 
n_act = 34657 
n_pre = 34641 
n_ref = 0 
n_req = 566160 
total_req = 691224 

Dual Bus Interface Util: 
issued_total_row = 69298 
issued_total_col = 691224 
Row_Bus_Util =  0.007082 
CoL_Bus_Util = 0.070639 
Either_Row_CoL_Bus_Util = 0.077367 
Issued_on_Two_Bus_Simul_Util = 0.000354 
issued_two_Eff = 0.004573 
queue_avg = 2.544513 


dram_util_bins: 0 0 0 0 0 0 0 0 0 0
dram_eff_bins: 0 0 0 0 0 0 0 0 0 0
mrqq: max=64 avg=2.54451
Memory Partition 11: 
Cache L2_bank_022:
MSHR contents

Cache L2_bank_023:
MSHR contents

In Dram Latency Queue (total = 0): 
DRAM[11]: 16 bks, busW=2 BL=16 CL=24, tRRD=12 tCCD=4, tRCD=24 tRAS=55 tRP=24 tRC=78
n_cmd=9785300 n_nop=9027861 n_act=34864 n_pre=34848 n_ref_event=0 n_req=566151 n_rd=524465 n_rd_L2_A=0 n_write=0 n_wr_bk=166741 bw_util=0.2825
n_activity=4029915 dram_eff=0.6861
bk0: 32772a 9016628i bk1: 32772a 8990453i bk2: 32832a 9134715i bk3: 32832a 9120297i bk4: 32832a 9122213i bk5: 32832a 9101251i bk6: 32832a 9109975i bk7: 32832a 9094119i bk8: 32853a 9121989i bk9: 32852a 9099540i bk10: 32832a 9051382i bk11: 32832a 9036338i bk12: 32640a 9131512i bk13: 32640a 9118368i bk14: 32640a 9129394i bk15: 32640a 9107476i 

------------------------------------------------------------------------

Row_Buffer_Locality = 0.938448
Row_Buffer_Locality_read = 0.961677
Row_Buffer_Locality_write = 0.646188
Bank_Level_Parallism = 3.458310
Bank_Level_Parallism_Col = 3.136995
Bank_Level_Parallism_Ready = 1.670273
write_to_read_ratio_blp_rw_average = 0.248311
GrpLevelPara = 2.300700 

BW Util details:
bwutil = 0.282549 
total_CMD = 9785300 
util_bw = 2764824 
Wasted_Col = 702398 
Wasted_Row = 87278 
Idle = 6230800 

BW Util Bottlenecks: 
RCDc_limit = 185846 
RCDWRc_limit = 52097 
WTRc_limit = 456651 
RTWc_limit = 548285 
CCDLc_limit = 466380 
rwq = 0 
CCDLc_limit_alone = 412223 
WTRc_limit_alone = 430080 
RTWc_limit_alone = 520699 

Commands details: 
total_CMD = 9785300 
n_nop = 9027861 
Read = 524465 
Write = 0 
L2_Alloc = 0 
L2_WB = 166741 
n_act = 34864 
n_pre = 34848 
n_ref = 0 
n_req = 566151 
total_req = 691206 

Dual Bus Interface Util: 
issued_total_row = 69712 
issued_total_col = 691206 
Row_Bus_Util =  0.007124 
CoL_Bus_Util = 0.070637 
Either_Row_CoL_Bus_Util = 0.077406 
Issued_on_Two_Bus_Simul_Util = 0.000356 
issued_two_Eff = 0.004593 
queue_avg = 2.567370 


dram_util_bins: 0 0 0 0 0 0 0 0 0 0
dram_eff_bins: 0 0 0 0 0 0 0 0 0 0
mrqq: max=64 avg=2.56737

========= L2 cache stats =========
L2_cache_bank[0]: Access = 722341, Miss = 262243, Miss_rate = 0.363, Pending_hits = 21434, Reservation_fails = 0
L2_cache_bank[1]: Access = 722330, Miss = 262240, Miss_rate = 0.363, Pending_hits = 20900, Reservation_fails = 0
L2_cache_bank[2]: Access = 722285, Miss = 262240, Miss_rate = 0.363, Pending_hits = 20789, Reservation_fails = 0
L2_cache_bank[3]: Access = 722367, Miss = 262240, Miss_rate = 0.363, Pending_hits = 20806, Reservation_fails = 0
L2_cache_bank[4]: Access = 740480, Miss = 262245, Miss_rate = 0.354, Pending_hits = 20998, Reservation_fails = 0
L2_cache_bank[5]: Access = 744707, Miss = 262244, Miss_rate = 0.352, Pending_hits = 21250, Reservation_fails = 0
L2_cache_bank[6]: Access = 744584, Miss = 262244, Miss_rate = 0.352, Pending_hits = 21359, Reservation_fails = 0
L2_cache_bank[7]: Access = 744903, Miss = 262244, Miss_rate = 0.352, Pending_hits = 21628, Reservation_fails = 0
L2_cache_bank[8]: Access = 744777, Miss = 262256, Miss_rate = 0.352, Pending_hits = 21449, Reservation_fails = 0
L2_cache_bank[9]: Access = 744908, Miss = 262256, Miss_rate = 0.352, Pending_hits = 20931, Reservation_fails = 0
L2_cache_bank[10]: Access = 744928, Miss = 262256, Miss_rate = 0.352, Pending_hits = 20748, Reservation_fails = 0
L2_cache_bank[11]: Access = 744541, Miss = 262256, Miss_rate = 0.352, Pending_hits = 20801, Reservation_fails = 0
L2_cache_bank[12]: Access = 726777, Miss = 262254, Miss_rate = 0.361, Pending_hits = 21043, Reservation_fails = 0
L2_cache_bank[13]: Access = 722375, Miss = 262252, Miss_rate = 0.363, Pending_hits = 21211, Reservation_fails = 0
L2_cache_bank[14]: Access = 740325, Miss = 262256, Miss_rate = 0.354, Pending_hits = 21365, Reservation_fails = 0
L2_cache_bank[15]: Access = 744796, Miss = 262256, Miss_rate = 0.352, Pending_hits = 21660, Reservation_fails = 0
L2_cache_bank[16]: Access = 744635, Miss = 262256, Miss_rate = 0.352, Pending_hits = 21458, Reservation_fails = 0
L2_cache_bank[17]: Access = 744793, Miss = 262256, Miss_rate = 0.352, Pending_hits = 20910, Reservation_fails = 0
L2_cache_bank[18]: Access = 744870, Miss = 262256, Miss_rate = 0.352, Pending_hits = 20795, Reservation_fails = 0
L2_cache_bank[19]: Access = 744882, Miss = 262256, Miss_rate = 0.352, Pending_hits = 20884, Reservation_fails = 0
L2_cache_bank[20]: Access = 744810, Miss = 262256, Miss_rate = 0.352, Pending_hits = 20976, Reservation_fails = 0
L2_cache_bank[21]: Access = 744779, Miss = 262256, Miss_rate = 0.352, Pending_hits = 21256, Reservation_fails = 0
L2_cache_bank[22]: Access = 726804, Miss = 262253, Miss_rate = 0.361, Pending_hits = 21428, Reservation_fails = 0
L2_cache_bank[23]: Access = 722490, Miss = 262252, Miss_rate = 0.363, Pending_hits = 21658, Reservation_fails = 0
L2_total_cache_accesses = 17695487
L2_total_cache_misses = 6294023
L2_total_cache_miss_rate = 0.3557
L2_total_cache_pending_hits = 507737
L2_total_cache_reservation_fails = 0
L2_total_cache_breakdown:
	L2_cache_stats_breakdown[GLOBAL_ACC_R][HIT] = 536992
	L2_cache_stats_breakdown[GLOBAL_ACC_R][HIT_RESERVED] = 507737
	L2_cache_stats_breakdown[GLOBAL_ACC_R][MISS] = 1573380
	L2_cache_stats_breakdown[GLOBAL_ACC_R][RESERVATION_FAIL] = 0
	L2_cache_stats_breakdown[GLOBAL_ACC_R][SECTOR_MISS] = 4720130
	L2_cache_stats_breakdown[GLOBAL_ACC_R][MSHR_HIT] = 507737
	L2_cache_stats_breakdown[LOCAL_ACC_R][HIT] = 0
	L2_cache_stats_breakdown[LOCAL_ACC_R][HIT_RESERVED] = 0
	L2_cache_stats_breakdown[LOCAL_ACC_R][MISS] = 0
	L2_cache_stats_breakdown[LOCAL_ACC_R][RESERVATION_FAIL] = 0
	L2_cache_stats_breakdown[LOCAL_ACC_R][SECTOR_MISS] = 0
	L2_cache_stats_breakdown[LOCAL_ACC_R][MSHR_HIT] = 0
	L2_cache_stats_breakdown[CONST_ACC_R][HIT] = 0
	L2_cache_stats_breakdown[CONST_ACC_R][HIT_RESERVED] = 0
	L2_cache_stats_breakdown[CONST_ACC_R][MISS] = 0
	L2_cache_stats_breakdown[CONST_ACC_R][RESERVATION_FAIL] = 0
	L2_cache_stats_breakdown[CONST_ACC_R][SECTOR_MISS] = 0
	L2_cache_stats_breakdown[CONST_ACC_R][MSHR_HIT] = 0
	L2_cache_stats_breakdown[TEXTURE_ACC_R][HIT] = 0
	L2_cache_stats_breakdown[TEXTURE_ACC_R][HIT_RESERVED] = 0
	L2_cache_stats_breakdown[TEXTURE_ACC_R][MISS] = 0
	L2_cache_stats_breakdown[TEXTURE_ACC_R][RESERVATION_FAIL] = 0
	L2_cache_stats_breakdown[TEXTURE_ACC_R][SECTOR_MISS] = 0
	L2_cache_stats_breakdown[TEXTURE_ACC_R][MSHR_HIT] = 0
	L2_cache_stats_breakdown[GLOBAL_ACC_W][HIT] = 10356735
	L2_cache_stats_breakdown[GLOBAL_ACC_W][HIT_RESERVED] = 0
	L2_cache_stats_breakdown[GLOBAL_ACC_W][MISS] = 129
	L2_cache_stats_breakdown[GLOBAL_ACC_W][RESERVATION_FAIL] = 0
	L2_cache_stats_breakdown[GLOBAL_ACC_W][SECTOR_MISS] = 384
	L2_cache_stats_breakdown[GLOBAL_ACC_W][MSHR_HIT] = 0
	L2_cache_stats_breakdown[LOCAL_ACC_W][HIT] = 0
	L2_cache_stats_breakdown[LOCAL_ACC_W][HIT_RESERVED] = 0
	L2_cache_stats_breakdown[LOCAL_ACC_W][MISS] = 0
	L2_cache_stats_breakdown[LOCAL_ACC_W][RESERVATION_FAIL] = 0
	L2_cache_stats_breakdown[LOCAL_ACC_W][SECTOR_MISS] = 0
	L2_cache_stats_breakdown[LOCAL_ACC_W][MSHR_HIT] = 0
	L2_cache_stats_breakdown[L1_WRBK_ACC][HIT] = 0
	L2_cache_stats_breakdown[L1_WRBK_ACC][HIT_RESERVED] = 0
	L2_cache_stats_breakdown[L1_WRBK_ACC][MISS] = 0
	L2_cache_stats_breakdown[L1_WRBK_ACC][RESERVATION_FAIL] = 0
	L2_cache_stats_breakdown[L1_WRBK_ACC][SECTOR_MISS] = 0
	L2_cache_stats_breakdown[L1_WRBK_ACC][MSHR_HIT] = 0
	L2_cache_stats_breakdown[L2_WRBK_ACC][HIT] = 0
	L2_cache_stats_breakdown[L2_WRBK_ACC][HIT_RESERVED] = 0
	L2_cache_stats_breakdown[L2_WRBK_ACC][MISS] = 0
	L2_cache_stats_breakdown[L2_WRBK_ACC][RESERVATION_FAIL] = 0
	L2_cache_stats_breakdown[L2_WRBK_ACC][SECTOR_MISS] = 0
	L2_cache_stats_breakdown[L2_WRBK_ACC][MSHR_HIT] = 0
	L2_cache_stats_breakdown[INST_ACC_R][HIT] = 0
	L2_cache_stats_breakdown[INST_ACC_R][HIT_RESERVED] = 0
	L2_cache_stats_breakdown[INST_ACC_R][MISS] = 0
	L2_cache_stats_breakdown[INST_ACC_R][RESERVATION_FAIL] = 0
	L2_cache_stats_breakdown[INST_ACC_R][SECTOR_MISS] = 0
	L2_cache_stats_breakdown[INST_ACC_R][MSHR_HIT] = 0
	L2_cache_stats_breakdown[L1_WR_ALLOC_R][HIT] = 0
	L2_cache_stats_breakdown[L1_WR_ALLOC_R][HIT_RESERVED] = 0
	L2_cache_stats_breakdown[L1_WR_ALLOC_R][MISS] = 0
	L2_cache_stats_breakdown[L1_WR_ALLOC_R][RESERVATION_FAIL] = 0
	L2_cache_stats_breakdown[L1_WR_ALLOC_R][SECTOR_MISS] = 0
	L2_cache_stats_breakdown[L1_WR_ALLOC_R][MSHR_HIT] = 0
	L2_cache_stats_breakdown[L2_WR_ALLOC_R][HIT] = 0
	L2_cache_stats_breakdown[L2_WR_ALLOC_R][HIT_RESERVED] = 0
	L2_cache_stats_breakdown[L2_WR_ALLOC_R][MISS] = 0
	L2_cache_stats_breakdown[L2_WR_ALLOC_R][RESERVATION_FAIL] = 0
	L2_cache_stats_breakdown[L2_WR_ALLOC_R][SECTOR_MISS] = 0
	L2_cache_stats_breakdown[L2_WR_ALLOC_R][MSHR_HIT] = 0
	L2_cache_stats_breakdown[GLOBAL_ACC_R][TOTAL_ACCESS] = 7338239
	L2_cache_stats_breakdown[GLOBAL_ACC_W][TOTAL_ACCESS] = 10357248
L2_total_cache_reservation_fail_breakdown:
L2_cache_data_port_util = 0.119
L2_cache_fill_port_util = 0.069

icnt_total_pkts_mem_to_simt=17695487
icnt_total_pkts_simt_to_mem=17695487
LD_mem_lat_dist  0 0 0 0 0 0 0 0 0 0 0 0 0 0 0 0 0 0 0 0 0 0 0 0 0 0 0
ST_mem_lat_dist  0 0 0 0 0 0 0 0 0 0 0 0 0 0 0 0 0 0 0 0 0 0 0 0 0 0 0
----------------------------Interconnect-DETAILS--------------------------------
GPGPU-Sim: synchronize waiting for inactive GPU simulation
Req_Network_injected_packets_num = 17695487
Req_Network_cycles = 3815724
Req_Network_injected_packets_per_cycle =       4.6375 
Req_Network_conflicts_per_cycle =       1.4698
Req_Network_conflicts_per_cycle_util =       1.5064
Req_Bank_Level_Parallism =       4.7529
Req_Network_in_buffer_full_per_cycle =       0.0000
Req_Network_in_buffer_avg_util =       1.3047
Req_Network_out_buffer_full_per_cycle =       0.0000
Req_Network_out_buffer_avg_util =       0.1932

Reply_Network_injected_packets_num = 17695487
Reply_Network_cycles = 3815724
Reply_Network_injected_packets_per_cycle =        4.6375
Reply_Network_conflicts_per_cycle =        1.7017
Reply_Network_conflicts_per_cycle_util =       1.7362
Reply_Bank_Level_Parallism =       4.7315
Reply_Network_in_buffer_full_per_cycle =       0.0000
Reply_Network_in_buffer_avg_util =       0.8395
Reply_Network_out_buffer_full_per_cycle =       0.0000
Reply_Network_out_buffer_avg_util =       0.1546
----------------------------END-of-Interconnect-DETAILS-------------------------
GPGPU-Sim API: Stream Manager State


gpgpu_simulation_time = 0 days, 4 hrs, 39 min, 13 sec (16753 sec)
gpgpu_simulation_rate = 40819 (inst/sec)
gpgpu_simulation_rate = 227 (cycle/sec)
gpgpu_silicon_slowdown = 6013215x
GPGPU-Sim: detected inactive GPU simulation thread
GPGPU-Sim PTX: Setting up arguments for 8 bytes starting at 0x7ffc3224ae18..
GPGPU-Sim PTX: Setting up arguments for 8 bytes starting at 0x7ffc3224ae10..

