

        *** GPGPU-Sim Simulator Version 4.2.0  [build gpgpu-sim_git-commit-5e9d31b8132651796656877ecb58fde27177ba7a_modified_315.0] ***


GPGPU-Sim PTX: simulation mode 0 (can change with PTX_SIM_MODE_FUNC environment variable:
               1=functional simulation only, 0=detailed performance simulator)
GPGPU-Sim PTX: overriding embedded ptx with ptx file (PTX_SIM_USE_PTX_FILE is set)
GPGPU-Sim: Configuration options:

-save_embedded_ptx                      0 # saves ptx files embedded in binary as <n>.ptx
-keep                                   0 # keep intermediate files created by GPGPU-Sim when interfacing with external programs
-gpgpu_ptx_save_converted_ptxplus                    0 # Saved converted ptxplus to a file
-gpgpu_occupancy_sm_number                   75 # The SM number to pass to ptxas when getting register usage for computing GPU occupancy. This parameter is required in the config.
-ptx_opcode_latency_int           4,4,4,4,21 # Opcode latencies for integers <ADD,MAX,MUL,MAD,DIV,SHFL>Default 1,1,19,25,145,32
-ptx_opcode_latency_fp           4,4,4,4,39 # Opcode latencies for single precision floating points <ADD,MAX,MUL,MAD,DIV>Default 1,1,1,1,30
-ptx_opcode_latency_dp      64,64,64,64,330 # Opcode latencies for double precision floating points <ADD,MAX,MUL,MAD,DIV>Default 8,8,8,8,335
-ptx_opcode_latency_sfu                   21 # Opcode latencies for SFU instructionsDefault 8
-ptx_opcode_latency_tesnor                   64 # Opcode latencies for Tensor instructionsDefault 64
-ptx_opcode_initiation_int            2,2,2,2,2 # Opcode initiation intervals for integers <ADD,MAX,MUL,MAD,DIV,SHFL>Default 1,1,4,4,32,4
-ptx_opcode_initiation_fp            2,2,2,2,4 # Opcode initiation intervals for single precision floating points <ADD,MAX,MUL,MAD,DIV>Default 1,1,1,1,5
-ptx_opcode_initiation_dp      64,64,64,64,130 # Opcode initiation intervals for double precision floating points <ADD,MAX,MUL,MAD,DIV>Default 8,8,8,8,130
-ptx_opcode_initiation_sfu                    8 # Opcode initiation intervals for sfu instructionsDefault 8
-ptx_opcode_initiation_tensor                   64 # Opcode initiation intervals for tensor instructionsDefault 64
-cdp_latency         7200,8000,100,12000,1600 # CDP API latency <cudaStreamCreateWithFlags, cudaGetParameterBufferV2_init_perWarp, cudaGetParameterBufferV2_perKernel, cudaLaunchDeviceV2_init_perWarp, cudaLaunchDevicV2_perKernel>Default 7200,8000,100,12000,1600
-network_mode                           2 # Interconnection network mode
-inter_config_file                   mesh # Interconnection network config file
-icnt_in_buffer_limit                  512 # in_buffer_limit
-icnt_out_buffer_limit                  512 # out_buffer_limit
-icnt_subnets                           2 # subnets
-icnt_arbiter_algo                      1 # arbiter_algo
-icnt_verbose                           0 # inct_verbose
-icnt_grant_cycles                      1 # grant_cycles
-gpgpu_ptx_use_cuobjdump                    1 # Use cuobjdump to extract ptx and sass from binaries
-gpgpu_experimental_lib_support                    0 # Try to extract code from cuda libraries [Broken because of unknown cudaGetExportTable]
-checkpoint_option                      0 #  checkpointing flag (0 = no checkpoint)
-checkpoint_kernel                      1 #  checkpointing during execution of which kernel (1- 1st kernel)
-checkpoint_CTA                         0 #  checkpointing after # of CTA (< less than total CTA)
-resume_option                          0 #  resume flag (0 = no resume)
-resume_kernel                          0 #  Resume from which kernel (1= 1st kernel)
-resume_CTA                             0 #  resume from which CTA 
-checkpoint_CTA_t                       0 #  resume from which CTA 
-checkpoint_insn_Y                      0 #  resume from which CTA 
-gpgpu_ptx_convert_to_ptxplus                    0 # Convert SASS (native ISA) to ptxplus and run ptxplus
-gpgpu_ptx_force_max_capability                   75 # Force maximum compute capability
-gpgpu_ptx_inst_debug_to_file                    0 # Dump executed instructions' debug information to file
-gpgpu_ptx_inst_debug_file       inst_debug.txt # Executed instructions' debug output file
-gpgpu_ptx_inst_debug_thread_uid                    1 # Thread UID for executed instructions' debug output
-gpgpu_simd_model                       1 # 1 = post-dominator
-gpgpu_shader_core_pipeline              1024:32 # shader core pipeline config, i.e., {<nthread>:<warpsize>}
-gpgpu_tex_cache:l1  N:4:128:256,L:R:m:N:L,T:512:8,128:2 # per-shader L1 texture cache  (READ-ONLY) config  {<nsets>:<bsize>:<assoc>,<rep>:<wr>:<alloc>:<wr_alloc>,<mshr>:<N>:<merge>,<mq>:<rf>}
-gpgpu_const_cache:l1 N:128:64:8,L:R:f:N:L,S:2:64,4 # per-shader L1 constant memory cache  (READ-ONLY) config  {<nsets>:<bsize>:<assoc>,<rep>:<wr>:<alloc>:<wr_alloc>,<mshr>:<N>:<merge>,<mq>} 
-gpgpu_cache:il1     N:64:128:16,L:R:f:N:L,S:2:48,4 # shader L1 instruction cache config  {<nsets>:<bsize>:<assoc>,<rep>:<wr>:<alloc>:<wr_alloc>,<mshr>:<N>:<merge>,<mq>} 
-gpgpu_cache:dl1     S:4:128:64,L:T:m:L:L,A:256:32,16:0,32 # per-shader L1 data cache config  {<nsets>:<bsize>:<assoc>,<rep>:<wr>:<alloc>:<wr_alloc>,<mshr>:<N>:<merge>,<mq> | none}
-gpgpu_l1_cache_write_ratio                   25 # L1D write ratio
-gpgpu_l1_banks                         4 # The number of L1 cache banks
-gpgpu_l1_banks_byte_interleaving                   32 # l1 banks byte interleaving granularity
-gpgpu_l1_banks_hashing_function                    0 # l1 banks hashing function
-gpgpu_l1_latency                      32 # L1 Hit Latency
-gpgpu_smem_latency                    30 # smem Latency
-gpgpu_cache:dl1PrefL1                 none # per-shader L1 data cache config  {<nsets>:<bsize>:<assoc>,<rep>:<wr>:<alloc>:<wr_alloc>,<mshr>:<N>:<merge>,<mq> | none}
-gpgpu_cache:dl1PrefShared                 none # per-shader L1 data cache config  {<nsets>:<bsize>:<assoc>,<rep>:<wr>:<alloc>:<wr_alloc>,<mshr>:<N>:<merge>,<mq> | none}
-gpgpu_gmem_skip_L1D                    0 # global memory access skip L1D cache (implements -Xptxas -dlcm=cg, default=no skip)
-gpgpu_perfect_mem                      0 # enable perfect memory mode (no cache miss)
-n_regfile_gating_group                    4 # group of lanes that should be read/written together)
-gpgpu_clock_gated_reg_file                    0 # enable clock gated reg file for power calculations
-gpgpu_clock_gated_lanes                    0 # enable clock gated lanes for power calculations
-gpgpu_shader_registers                65536 # Number of registers per shader core. Limits number of concurrent CTAs. (default 8192)
-gpgpu_registers_per_block                65536 # Maximum number of registers per CTA. (default 8192)
-gpgpu_ignore_resources_limitation                    0 # gpgpu_ignore_resources_limitation (default 0)
-gpgpu_shader_cta                      16 # Maximum number of concurrent CTAs in shader (default 32)
-gpgpu_num_cta_barriers                   16 # Maximum number of named barriers per CTA (default 16)
-gpgpu_n_clusters                      30 # number of processing clusters
-gpgpu_n_cores_per_cluster                    1 # number of simd cores per cluster
-gpgpu_n_cluster_ejection_buffer_size                   32 # number of packets in ejection buffer
-gpgpu_n_ldst_response_buffer_size                    2 # number of response packets in ld/st unit ejection buffer
-gpgpu_shmem_per_block                49152 # Size of shared memory per thread block or CTA (default 48kB)
-gpgpu_shmem_size                   65536 # Size of shared memory per shader core (default 16kB)
-gpgpu_shmem_option                 32,64 # Option list of shared memory sizes
-gpgpu_unified_l1d_size                   96 # Size of unified data cache(L1D + shared memory) in KB
-gpgpu_adaptive_cache_config                    1 # adaptive_cache_config
-gpgpu_shmem_sizeDefault                65536 # Size of shared memory per shader core (default 16kB)
-gpgpu_shmem_size_PrefL1                16384 # Size of shared memory per shader core (default 16kB)
-gpgpu_shmem_size_PrefShared                16384 # Size of shared memory per shader core (default 16kB)
-gpgpu_shmem_num_banks                   32 # Number of banks in the shared memory in each shader core (default 16)
-gpgpu_shmem_limited_broadcast                    0 # Limit shared memory to do one broadcast per cycle (default on)
-gpgpu_shmem_warp_parts                    1 # Number of portions a warp is divided into for shared memory bank conflict check 
-gpgpu_mem_unit_ports                    1 # The number of memory transactions allowed per core cycle
-gpgpu_shmem_warp_parts                    1 # Number of portions a warp is divided into for shared memory bank conflict check 
-gpgpu_warpdistro_shader                   -1 # Specify which shader core to collect the warp size distribution from
-gpgpu_warp_issue_shader                    0 # Specify which shader core to collect the warp issue distribution from
-gpgpu_local_mem_map                    1 # Mapping from local memory space address to simulated GPU physical address space (default = enabled)
-gpgpu_num_reg_banks                    8 # Number of register banks (default = 8)
-gpgpu_reg_bank_use_warp_id                    0 # Use warp ID in mapping registers to banks (default = off)
-gpgpu_sub_core_model                    1 # Sub Core Volta/Pascal model (default = off)
-gpgpu_enable_specialized_operand_collector                    0 # enable_specialized_operand_collector
-gpgpu_operand_collector_num_units_sp                    4 # number of collector units (default = 4)
-gpgpu_operand_collector_num_units_dp                    0 # number of collector units (default = 0)
-gpgpu_operand_collector_num_units_sfu                    4 # number of collector units (default = 4)
-gpgpu_operand_collector_num_units_int                    0 # number of collector units (default = 0)
-gpgpu_operand_collector_num_units_tensor_core                    4 # number of collector units (default = 4)
-gpgpu_operand_collector_num_units_mem                    2 # number of collector units (default = 2)
-gpgpu_operand_collector_num_units_gen                    8 # number of collector units (default = 0)
-gpgpu_operand_collector_num_in_ports_sp                    1 # number of collector unit in ports (default = 1)
-gpgpu_operand_collector_num_in_ports_dp                    0 # number of collector unit in ports (default = 0)
-gpgpu_operand_collector_num_in_ports_sfu                    1 # number of collector unit in ports (default = 1)
-gpgpu_operand_collector_num_in_ports_int                    0 # number of collector unit in ports (default = 0)
-gpgpu_operand_collector_num_in_ports_tensor_core                    1 # number of collector unit in ports (default = 1)
-gpgpu_operand_collector_num_in_ports_mem                    1 # number of collector unit in ports (default = 1)
-gpgpu_operand_collector_num_in_ports_gen                    8 # number of collector unit in ports (default = 0)
-gpgpu_operand_collector_num_out_ports_sp                    1 # number of collector unit in ports (default = 1)
-gpgpu_operand_collector_num_out_ports_dp                    0 # number of collector unit in ports (default = 0)
-gpgpu_operand_collector_num_out_ports_sfu                    1 # number of collector unit in ports (default = 1)
-gpgpu_operand_collector_num_out_ports_int                    0 # number of collector unit in ports (default = 0)
-gpgpu_operand_collector_num_out_ports_tensor_core                    1 # number of collector unit in ports (default = 1)
-gpgpu_operand_collector_num_out_ports_mem                    1 # number of collector unit in ports (default = 1)
-gpgpu_operand_collector_num_out_ports_gen                    8 # number of collector unit in ports (default = 0)
-gpgpu_coalesce_arch                   75 # Coalescing arch (GT200 = 13, Fermi = 20)
-gpgpu_num_sched_per_core                    4 # Number of warp schedulers per core
-gpgpu_max_insn_issue_per_warp                    1 # Max number of instructions that can be issued per warp in one cycle by scheduler (either 1 or 2)
-gpgpu_dual_issue_diff_exec_units                    1 # should dual issue use two different execution unit resources (Default = 1)
-gpgpu_simt_core_sim_order                    1 # Select the simulation order of cores in a cluster (0=Fix, 1=Round-Robin)
-gpgpu_pipeline_widths 4,4,4,4,4,4,4,4,4,4,8,4,4 # Pipeline widths ID_OC_SP,ID_OC_DP,ID_OC_INT,ID_OC_SFU,ID_OC_MEM,OC_EX_SP,OC_EX_DP,OC_EX_INT,OC_EX_SFU,OC_EX_MEM,EX_WB,ID_OC_TENSOR_CORE,OC_EX_TENSOR_CORE
-gpgpu_tensor_core_avail                    1 # Tensor Core Available (default=0)
-gpgpu_num_sp_units                     4 # Number of SP units (default=1)
-gpgpu_num_dp_units                     4 # Number of DP units (default=0)
-gpgpu_num_int_units                    4 # Number of INT units (default=0)
-gpgpu_num_sfu_units                    4 # Number of SF units (default=1)
-gpgpu_num_tensor_core_units                    4 # Number of tensor_core units (default=1)
-gpgpu_num_mem_units                    1 # Number if ldst units (default=1) WARNING: not hooked up to anything
-gpgpu_scheduler                      lrr # Scheduler configuration: < lrr | gto | two_level_active > If two_level_active:<num_active_warps>:<inner_prioritization>:<outer_prioritization>For complete list of prioritization values see shader.h enum scheduler_prioritization_typeDefault: gto
-gpgpu_concurrent_kernel_sm                    0 # Support concurrent kernels on a SM (default = disabled)
-gpgpu_perfect_inst_const_cache                    1 # perfect inst and const cache mode, so all inst and const hits in the cache(default = disabled)
-gpgpu_inst_fetch_throughput                    4 # the number of fetched intruction per warp each cycle
-gpgpu_reg_file_port_throughput                    2 # the number ports of the register file
-specialized_unit_1         0,4,4,4,4,BRA # specialized unit config {<enabled>,<num_units>:<latency>:<initiation>,<ID_OC_SPEC>:<OC_EX_SPEC>,<NAME>}
-specialized_unit_2         0,4,4,4,4,BRA # specialized unit config {<enabled>,<num_units>:<latency>:<initiation>,<ID_OC_SPEC>:<OC_EX_SPEC>,<NAME>}
-specialized_unit_3         0,4,4,4,4,BRA # specialized unit config {<enabled>,<num_units>:<latency>:<initiation>,<ID_OC_SPEC>:<OC_EX_SPEC>,<NAME>}
-specialized_unit_4         0,4,4,4,4,BRA # specialized unit config {<enabled>,<num_units>:<latency>:<initiation>,<ID_OC_SPEC>:<OC_EX_SPEC>,<NAME>}
-specialized_unit_5         0,4,4,4,4,BRA # specialized unit config {<enabled>,<num_units>:<latency>:<initiation>,<ID_OC_SPEC>:<OC_EX_SPEC>,<NAME>}
-specialized_unit_6         0,4,4,4,4,BRA # specialized unit config {<enabled>,<num_units>:<latency>:<initiation>,<ID_OC_SPEC>:<OC_EX_SPEC>,<NAME>}
-specialized_unit_7         0,4,4,4,4,BRA # specialized unit config {<enabled>,<num_units>:<latency>:<initiation>,<ID_OC_SPEC>:<OC_EX_SPEC>,<NAME>}
-specialized_unit_8         0,4,4,4,4,BRA # specialized unit config {<enabled>,<num_units>:<latency>:<initiation>,<ID_OC_SPEC>:<OC_EX_SPEC>,<NAME>}
-gpgpu_perf_sim_memcpy                    1 # Fill the L2 cache on memcpy
-gpgpu_simple_dram_model                    0 # simple_dram_model with fixed latency and BW
-gpgpu_dram_scheduler                    1 # 0 = fifo, 1 = FR-FCFS (defaul)
-gpgpu_dram_partition_queues          64:64:64:64 # i2$:$2d:d2$:$2i
-l2_ideal                               0 # Use a ideal L2 cache that always hit
-gpgpu_cache:dl2     S:64:128:16,L:B:m:L:P,A:192:4,32:0,32 # unified banked L2 data cache config  {<nsets>:<bsize>:<assoc>,<rep>:<wr>:<alloc>:<wr_alloc>,<mshr>:<N>:<merge>,<mq>}
-gpgpu_cache:dl2_texture_only                    0 # L2 cache used for texture only
-gpgpu_n_mem                           12 # number of memory modules (e.g. memory controllers) in gpu
-gpgpu_n_sub_partition_per_mchannel                    2 # number of memory subpartition in each memory module
-gpgpu_n_mem_per_ctrlr                    1 # number of memory chips per memory controller
-gpgpu_memlatency_stat                   14 # track and display latency statistics 0x2 enables MC, 0x4 enables queue logs
-gpgpu_frfcfs_dram_sched_queue_size                   64 # 0 = unlimited (default); # entries per chip
-gpgpu_dram_return_queue_size                  192 # 0 = unlimited (default); # entries per chip
-gpgpu_dram_buswidth                    2 # default = 4 bytes (8 bytes per cycle at DDR)
-gpgpu_dram_burst_length                   16 # Burst length of each DRAM request (default = 4 data bus cycle)
-dram_data_command_freq_ratio                    4 # Frequency ratio between DRAM data bus and command bus (default = 2 times, i.e. DDR)
-gpgpu_dram_timing_opt nbk=16:CCD=4:RRD=12:RCD=24:RAS=55:RP=24:RC=78:CL=24:WL=8:CDLR=10:WR=24:nbkgrp=4:CCDL=6:RTPL=4 # DRAM timing parameters = {nbk:tCCD:tRRD:tRCD:tRAS:tRP:tRC:CL:WL:tCDLR:tWR:nbkgrp:tCCDL:tRTPL}
-gpgpu_l2_rop_latency                  194 # ROP queue latency (default 85)
-dram_latency                          96 # DRAM latency (default 30)
-dram_dual_bus_interface                    0 # dual_bus_interface (default = 0) 
-dram_bnk_indexing_policy                    0 # dram_bnk_indexing_policy (0 = normal indexing, 1 = Xoring with the higher bits) (Default = 0)
-dram_bnkgrp_indexing_policy                    1 # dram_bnkgrp_indexing_policy (0 = take higher bits, 1 = take lower bits) (Default = 0)
-dram_seperate_write_queue_enable                    0 # Seperate_Write_Queue_Enable
-dram_write_queue_size             32:28:16 # Write_Queue_Size
-dram_elimnate_rw_turnaround                    0 # elimnate_rw_turnaround i.e set tWTR and tRTW = 0
-icnt_flit_size                        40 # icnt_flit_size
-icnt_flit_size                        40 # icnt_flit_size
-mem_profiler                           0 # memory access runtime profiling (0 = not enabled)
-gpgpu_mem_addr_mapping dramid@8;00000000.00000000.00000000.00000000.0000RRRR.RRRRRRRR.RBBBCCCC.BCCSSSSS # mapping memory address to dram model {dramid@<start bit>;<memory address map>}
-gpgpu_mem_addr_test                    0 # run sweep test to check address mapping for aliased address
-gpgpu_mem_address_mask                    1 # 0 = old addressing mask, 1 = new addressing mask, 2 = new add. mask + flipped bank sel and chip sel bits
-gpgpu_memory_partition_indexing                    0 # 0 = no indexing, 1 = bitwise xoring, 2 = IPoly, 3 = custom indexing
-accelwattch_xml_file accelwattch_sass_sim.xml # AccelWattch XML file
-power_simulation_enabled                    1 # Turn on power simulator (1=On, 0=Off)
-power_per_cycle_dump                    1 # Dump detailed power output each cycle
-hw_perf_file_name            hw_perf.csv # Hardware Performance Statistics file
-hw_perf_bench_name    hw_perf_bench_name # Kernel Name in Hardware Performance Statistics file
-power_simulation_mode                    0 # Switch performance counter input for power simulation (0=Sim, 1=HW, 2=HW-Sim Hybrid)
-dvfs_enabled                           1 # Turn on DVFS for power model
-aggregate_power_stats                    0 # Accumulate power across all kernels
-accelwattch_hybrid_perfsim_L1_RH                    0 # Get L1 Read Hits for Accelwattch-Hybrid from Accel-Sim
-accelwattch_hybrid_perfsim_L1_RM                    0 # Get L1 Read Misses for Accelwattch-Hybrid from Accel-Sim
-accelwattch_hybrid_perfsim_L1_WH                    0 # Get L1 Write Hits for Accelwattch-Hybrid from Accel-Sim
-accelwattch_hybrid_perfsim_L1_WM                    0 # Get L1 Write Misses for Accelwattch-Hybrid from Accel-Sim
-accelwattch_hybrid_perfsim_L2_RH                    0 # Get L2 Read Hits for Accelwattch-Hybrid from Accel-Sim
-accelwattch_hybrid_perfsim_L2_RM                    0 # Get L2 Read Misses for Accelwattch-Hybrid from Accel-Sim
-accelwattch_hybrid_perfsim_L2_WH                    0 # Get L2 Write Hits for Accelwattch-Hybrid from Accel-Sim
-accelwattch_hybrid_perfsim_L2_WM                    0 # Get L2 Write Misses for Accelwattch-Hybrid from Accel-Sim
-accelwattch_hybrid_perfsim_CC_ACC                    0 # Get Constant Cache Acesses for Accelwattch-Hybrid from Accel-Sim
-accelwattch_hybrid_perfsim_SHARED_ACC                    0 # Get Shared Memory Acesses for Accelwattch-Hybrid from Accel-Sim
-accelwattch_hybrid_perfsim_DRAM_RD                    0 # Get DRAM Reads for Accelwattch-Hybrid from Accel-Sim
-accelwattch_hybrid_perfsim_DRAM_WR                    0 # Get DRAM Writes for Accelwattch-Hybrid from Accel-Sim
-accelwattch_hybrid_perfsim_NOC                    0 # Get Interconnect Acesses for Accelwattch-Hybrid from Accel-Sim
-accelwattch_hybrid_perfsim_PIPE_DUTY                    0 # Get Pipeline Duty Cycle Acesses for Accelwattch-Hybrid from Accel-Sim
-accelwattch_hybrid_perfsim_NUM_SM_IDLE                    0 # Get Number of Idle SMs for Accelwattch-Hybrid from Accel-Sim
-accelwattch_hybrid_perfsim_CYCLES                    0 # Get Executed Cycles for Accelwattch-Hybrid from Accel-Sim
-accelwattch_hybrid_perfsim_VOLTAGE                    0 # Get Chip Voltage for Accelwattch-Hybrid from Accel-Sim
-power_trace_enabled                    0 # produce a file for the power trace (1=On, 0=Off)
-power_trace_zlevel                     0 # Compression level of the power trace output log (0=no comp, 9=highest)
-steady_power_levels_enabled                    0 # produce a file for the steady power levels (1=On, 0=Off)
-steady_state_definition                  8:4 # allowed deviation:number of samples
-gpgpu_max_cycle                        0 # terminates gpu simulation early (0 = no limit)
-gpgpu_max_insn                         0 # terminates gpu simulation early (0 = no limit)
-gpgpu_max_cta                          0 # terminates gpu simulation early (0 = no limit)
-gpgpu_max_completed_cta                    0 # terminates gpu simulation early (0 = no limit)
-gpgpu_runtime_stat                  1000 # display runtime statistics such as dram utilization {<freq>:<flag>}
-liveness_message_freq                    1 # Minimum number of seconds between simulation liveness messages (0 = always print)
-gpgpu_compute_capability_major                    7 # Major compute capability version number
-gpgpu_compute_capability_minor                    5 # Minor compute capability version number
-gpgpu_flush_l1_cache                    1 # Flush L1 cache at the end of each kernel call
-gpgpu_flush_l2_cache                    0 # Flush L2 cache at the end of each kernel call
-gpgpu_deadlock_detect                    1 # Stop the simulation at deadlock (1=on (default), 0=off)
-gpgpu_ptx_instruction_classification                    0 # if enabled will classify ptx instruction types per kernel (Max 255 kernels now)
-gpgpu_ptx_sim_mode                     0 # Select between Performance (default) or Functional simulation (1)
-gpgpu_clock_domains 1365:1365:1365:3500.5 # Clock Domain Frequencies in MhZ {<Core Clock>:<ICNT Clock>:<L2 Clock>:<DRAM Clock>}
-gpgpu_max_concurrent_kernel                  128 # maximum kernels that can run concurrently on GPU, set this value according to max resident grids for your compute capability
-gpgpu_cflog_interval                    0 # Interval between each snapshot in control flow logger
-visualizer_enabled                     0 # Turn on visualizer output (1=On, 0=Off)
-visualizer_outputfile                 NULL # Specifies the output log file for visualizer
-visualizer_zlevel                      6 # Compression level of the visualizer output log (0=no comp, 9=highest)
-gpgpu_stack_size_limit                 1024 # GPU thread stack size
-gpgpu_heap_size_limit              8388608 # GPU malloc heap size 
-gpgpu_runtime_sync_depth_limit                    2 # GPU device runtime synchronize depth
-gpgpu_runtime_pending_launch_count_limit                 2048 # GPU device runtime pending launch count
-trace_enabled                          0 # Turn on traces
-trace_components                    none # comma seperated list of traces to enable. Complete list found in trace_streams.tup. Default none
-trace_sampling_core                    0 # The core which is printed using CORE_DPRINTF. Default 0
-trace_sampling_memory_partition                   -1 # The memory partition which is printed using MEMPART_DPRINTF. Default -1 (i.e. all)
-enable_ptx_file_line_stats                    1 # Turn on PTX source line statistic profiling. (1 = On)
-ptx_line_stats_filename gpgpu_inst_stats.txt # Output file for PTX source line statistics.
-gpgpu_kernel_launch_latency                 5000 # Kernel launch latency in cycles. Default: 0
-gpgpu_cdp_enabled                      0 # Turn on CDP
-gpgpu_TB_launch_latency                    0 # thread block launch latency in cycles. Default: 0
-mem_runtime_stat                     100 # memory access runtime profiling sampling81165b7b94fe60e5edd3661e7ddfbca7  /home/pars/Documents/sim_1/cc_base
Extracting PTX file and ptxas options    1: cc_base.1.sm_75.ptx -arch=sm_75
 freq
-L1D_metrics                            0 # memory access runtime profiling for L1 data cache
-IPC_per_prof_interval                    0 # IPC per profiling interval
-instruction_monitor                    0 # Instruction monitor
-noncoal_metrics                        0 # memory access runtime profiling for shared memory
-L2_metrics                             0 # memory access runtime profiling for L2 cache
-DRAM_metrics                           0 # memory access runtime profiling for DRAM
-Shmem_metrics                          0 # memory access runtime profiling for noncoalesced accesses
-store_enable                           0 # Enable stores for memory profiling
-accumulate_stats                       0 # Accumulate stats for the memory profiling
-dump_enable                            0 # Process dump enable flag - (def = 0)
-flush_l1d                              0 # Enable flushings for L1D caches - (default = 0)
-flush_l2                               0 # Enable flushings for L2 caches - (default = 0)
-flush_dram                             0 # Enable flushings for DRAM - (default = 0)
-flush_noncoalesceds                    0 # Enable flushings for non coalesced accesses - (default = 0)
-flush_shmems                           0 # Enable flushings for shared memory accesses - (default = 0)
-error_percentage          21474836480001 # Error percentage for the flushes - (default = 1)
-dump_sampling_cycle       21474836485000 # Dump sampling frequency - (default = 5000)
-flush_acc_type                         2 # Flush access types
-monitor_sampling_cycle                 5000 # Monitoring sampling cycle - (default = 5000)
DRAM Timing Options:
nbk                                    16 # number of banks
CCD                                     4 # column to column delay
RRD                                    12 # minimal delay between activation of rows in different banks
RCD                                    24 # row to column delay
RAS                                    55 # time needed to activate row
RP                                     24 # time needed to precharge (deactivate) row
RC                                     78 # row cycle time
CDLR                                   10 # switching from write to read (changes tWTR)
WR                                     24 # last data-in to row precharge
CL                                     24 # CAS latency
WL                                      8 # Write latency
nbkgrp                                  4 # number of bank groups
CCDL                                    6 # column to column delay between accesses to different bank groups
RTPL                                    4 # read to precharge delay between accesses to different bank groups
Total number of memory sub partition = 24
addr_dec_mask[CHIP]  = 0000000000000000 	high:64 low:0
addr_dec_mask[BK]    = 0000000000007080 	high:15 low:7
addr_dec_mask[ROW]   = 000000000fff8000 	high:28 low:15
addr_dec_mask[COL]   = 0000000000000f7f 	high:12 low:0
addr_dec_mask[BURST] = 000000000000001f 	high:5 low:0
sub_partition_id_mask = 0000000000000080
GPGPU-Sim uArch: clock freqs: 1365000000.000000:1365000000.000000:1365000000.000000:3500500000.000000
GPGPU-Sim uArch: clock periods: 0.00000000073260073260:0.00000000073260073260:0.00000000073260073260:0.00000000028567347522
*** Initializing Memory Statistics ***
GPGPU-Sim uArch: performance model initialization complete.
self exe links to: /home/pars/Documents/sim_1/cc_base
self exe links to: /home/pars/Documents/sim_1/cc_base
11.0
GPGPU-Sim PTX: __cudaRegisterFatBinary, fat_cubin_handle = 1, filename=default
self exe links to: /home/pars/Documents/sim_1/cc_base
Running md5sum using "md5sum /home/pars/Documents/sim_1/cc_base "
self exe links to: /home/pars/Documents/sim_1/cc_base
Extracting specific PTX file named cc_base.1.sm_75.ptx 
GPGPU-Sim PTX: __cudaRegisterFunction _Z8shortcutiPi : hostFun 0x0x5592d4a01dbb, fat_cubin_handle = 1
GPGPU-Sim PTX: Parsing cc_base.1.sm_75.ptx
GPGPU-Sim PTX: Warning -- ignoring pragma 'nounroll'
GPGPU-Sim PTX: instruction assembly for function '_Z4hookiPKmPKiPiPb'...   done.
GPGPU-Sim PTX: instruction assembly for function '_Z8shortcutiPi'...   done.
GPGPU-Sim PTX: finished parsing EMBEDDED .ptx file cc_base.1.sm_75.ptx
GPGPU-Sim PTX: loading globals with explicit initializers... 
GPGPU-Sim PTX: finished loading globals (0 bytes total).
GPGPU-Sim PTX: loading constants with explicit initializers...  done.
GPGPU-Sim PTX: Loading PTXInfo from cc_base.1.sm_75.ptx
GPGPU-Sim PTX: Kernel '_Z8shortcutiPi' : regs=12, lmem=0, smem=0, cmem=368
GPGPU-Sim PTX: Kernel '_Z4hookiPKmPKiPiPb' : regs=18, lmem=0, smem=0, cmem=392
GPGPU-Sim PTX: __cudaRegisterFunction _Z4hookiPKmPKiPiPb : hostFun 0x0x5592d4a01c40, fat_cubin_handle = 1
Connected Component by Xuhao Chen
Reading (.mtx) input file ../CudaBenchmarks/gardenia/datasets/new/sc-pkustk11.mtx
Removing redundent edges... 0 redundent edges are removed
|V| 87804 |E| 5130108
This graph is symmetrized
Launching CUDA CC solver (343 CTAs, 256 threads/CTA) ...
GPGPU-Sim PTX: Setting up arguments for 4 bytes starting at 0x7ffe01f6e80c..
GPGPU-Sim PTX: Setting up arguments for 8 bytes starting at 0x7ffe01f6e800..
GPGPU-Sim PTX: Setting up arguments for 8 bytes starting at 0x7ffe01f6e7f8..
GPGPU-Sim PTX: Setting up arguments for 8 bytes starting at 0x7ffe01f6e7f0..
GPGPU-Sim PTX: Setting up arguments for 8 bytes starting at 0x7ffe01f6e7e8..

GPGPU-Sim PTX: cudaLaunch for 0x0x5592d4a01c40 (mode=performance simulation) on stream 0
GPGPU-Sim PTX: finding reconvergence points for '_Z4hookiPKmPKiPiPb'...
GPGPU-Sim PTX: Finding dominators for '_Z4hookiPKmPKiPiPb'...
GPGPU-Sim PTX: Finding immediate dominators for '_Z4hookiPKmPKiPiPb'...
GPGPU-Sim PTX: Finding postdominators for '_Z4hookiPKmPKiPiPb'...
GPGPU-Sim PTX: Finding immediate postdominators for '_Z4hookiPKmPKiPiPb'...
GPGPU-Sim PTX: pre-decoding instructions for '_Z4hookiPKmPKiPiPb'...
GPGPU-Sim PTX: reconvergence points for _Z4hookiPKmPKiPiPb...
GPGPU-Sim PTX:  1 (potential) branch divergence @  PC=0x068 (cc_base.1.sm_75.ptx:42) @%p1 bra $L__BB0_23;

GPGPU-Sim PTX:    immediate post dominator      @  PC=0x408 (cc_base.1.sm_75.ptx:201) ret;

GPGPU-Sim PTX:  2 (potential) branch divergence @  PC=0x0b8 (cc_base.1.sm_75.ptx:53) @%p2 bra $L__BB0_23;

GPGPU-Sim PTX:    immediate post dominator      @  PC=0x408 (cc_base.1.sm_75.ptx:201) ret;

GPGPU-Sim PTX:  3 (potential) branch divergence @  PC=0x0e0 (cc_base.1.sm_75.ptx:59) @%p3 bra $L__BB0_8;

GPGPU-Sim PTX:    immediate post dominator      @  PC=0x1b0 (cc_base.1.sm_75.ptx:97) not.b32 %r33, %r3;

GPGPU-Sim PTX:  4 (potential) branch divergence @  PC=0x130 (cc_base.1.sm_75.ptx:75) @%p4 bra $L__BB0_7;

GPGPU-Sim PTX:    immediate post dominator      @  PC=0x188 (cc_base.1.sm_75.ptx:90) add.s32 %r57, %r57, 1;

GPGPU-Sim PTX:  5 (potential) branch divergence @  PC=0x170 (cc_base.1.sm_75.ptx:84) @%p5 bra $L__BB0_7;

GPGPU-Sim PTX:    immediate post dominator      @  PC=0x188 (cc_base.1.sm_75.ptx:90) add.s32 %r57, %r57, 1;

GPGPU-Sim PTX:  6 (potential) branch divergence @  PC=0x1a8 (cc_base.1.sm_75.ptx:94) @%p6 bra $L__BB0_4;

GPGPU-Sim PTX:    immediate post dominator      @  PC=0x1b0 (cc_base.1.sm_75.ptx:97) not.b32 %r33, %r3;

GPGPU-Sim PTX:  7 (potential) branch divergence @  PC=0x1c8 (cc_base.1.sm_75.ptx:100) @%p7 bra $L__BB0_23;

GPGPU-Sim PTX:    immediate post dominator      @  PC=0x408 (cc_base.1.sm_75.ptx:201) ret;

GPGPU-Sim PTX:  8 (potential) branch divergence @  PC=0x210 (cc_base.1.sm_75.ptx:114) @%p8 bra $L__BB0_13;

GPGPU-Sim PTX:    immediate post dominator      @  PC=0x268 (cc_base.1.sm_75.ptx:129) ld.global.u32 %r41, [%rd42+4];

GPGPU-Sim PTX:  9 (potential) branch divergence @  PC=0x250 (cc_base.1.sm_75.ptx:123) @%p9 bra $L__BB0_13;

GPGPU-Sim PTX:    immediate post dominator      @  PC=0x268 (cc_base.1.sm_75.ptx:129) ld.global.u32 %r41, [%rd42+4];

GPGPU-Sim PTX: 10 (potential) branch divergence @  PC=0x290 (cc_base.1.sm_75.ptx:136) @%p10 bra $L__BB0_16;

GPGPU-Sim PTX:    immediate post dominator      @  PC=0x2e8 (cc_base.1.sm_75.ptx:151) ld.global.u32 %r46, [%rd42+8];

GPGPU-Sim PTX: 11 (potential) branch divergence @  PC=0x2d0 (cc_base.1.sm_75.ptx:145) @%p11 bra $L__BB0_16;

GPGPU-Sim PTX:    immediate post dominator      @  PC=0x2e8 (cc_base.1.sm_75.ptx:151) ld.global.u32 %r46, [%rd42+8];

GPGPU-Sim PTX: 12 (potential) branch divergence @  PC=0x310 (cc_base.1.sm_75.ptx:158) @%p12 bra $L__BB0_19;

GPGPU-Sim PTX:    immediate post dominator      @  PC=0x368 (cc_base.1.sm_75.ptx:173) ld.global.u32 %r51, [%rd42+12];

GPGPU-Sim PTX: 13 (potential) branch divergence @  PC=0x350 (cc_base.1.sm_75.ptx:167) @%p13 bra $L__BB0_19;

GPGPU-Sim PTX:    immediate post dominator      @  PC=0x368 (cc_base.1.sm_75.ptx:173) ld.global.u32 %r51, [%rd42+12];

GPGPU-Sim PTX: 14 (potential) branch divergence @  PC=0x390 (cc_base.1.sm_75.ptx:180) @%p14 bra $L__BB0_22;

GPGPU-Sim PTX:    immediate post dominator      @  PC=0x3e8 (cc_base.1.sm_75.ptx:195) add.s32 %r57, %r57, 4;

GPGPU-Sim PTX: 15 (potential) branch divergence @  PC=0x3d0 (cc_base.1.sm_75.ptx:189) @%p15 bra $L__BB0_22;

GPGPU-Sim PTX:    immediate post dominator      @  PC=0x3e8 (cc_base.1.sm_75.ptx:195) add.s32 %r57, %r57, 4;

GPGPU-Sim PTX: 16 (potential) branch divergence @  PC=0x400 (cc_base.1.sm_75.ptx:198) @%p16 bra $L__BB0_10;

GPGPU-Sim PTX:    immediate post dominator      @  PC=0x408 (cc_base.1.sm_75.ptx:201) ret;

GPGPU-Sim PTX: ... end of reconvergence points for _Z4hookiPKmPKiPiPb
GPGPU-Sim PTX: ... done pre-decoding instructions for '_Z4hookiPKmPKiPiPb'.
GPGPU-Sim PTX: pushing kernel '_Z4hookiPKmPKiPiPb' to stream 0, gridDim= (343,1,1) blockDim = (256,1,1) 
GPGPU-Sim uArch: Shader 0 bind to kernel 1 '_Z4hookiPKmPKiPiPb'
GPGPU-Sim uArch: CTA/core = 4, limited by: threads
GPGPU-Sim: Reconfigure L1 cache to 64KB
GPGPU-Sim uArch: Shader 1 bind to kernel 1 '_Z4hookiPKmPKiPiPb'
GPGPU-Sim uArch: Shader 2 bind to kernel 1 '_Z4hookiPKmPKiPiPb'
GPGPU-Sim uArch: Shader 3 bind to kernel 1 '_Z4hookiPKmPKiPiPb'
GPGPU-Sim uArch: Shader 4 bind to kernel 1 '_Z4hookiPKmPKiPiPb'
GPGPU-Sim uArch: Shader 5 bind to kernel 1 '_Z4hookiPKmPKiPiPb'
GPGPU-Sim uArch: Shader 6 bind to kernel 1 '_Z4hookiPKmPKiPiPb'
GPGPU-Sim uArch: Shader 7 bind to kernel 1 '_Z4hookiPKmPKiPiPb'
GPGPU-Sim uArch: Shader 8 bind to kernel 1 '_Z4hookiPKmPKiPiPb'
GPGPU-Sim uArch: Shader 9 bind to kernel 1 '_Z4hookiPKmPKiPiPb'
GPGPU-Sim uArch: Shader 10 bind to kernel 1 '_Z4hookiPKmPKiPiPb'
GPGPU-Sim uArch: Shader 11 bind to kernel 1 '_Z4hookiPKmPKiPiPb'
GPGPU-Sim uArch: Shader 12 bind to kernel 1 '_Z4hookiPKmPKiPiPb'
GPGPU-Sim uArch: Shader 13 bind to kernel 1 '_Z4hookiPKmPKiPiPb'
GPGPU-Sim uArch: Shader 14 bind to kernel 1 '_Z4hookiPKmPKiPiPb'
GPGPU-Sim uArch: Shader 15 bind to kernel 1 '_Z4hookiPKmPKiPiPb'
GPGPU-Sim uArch: Shader 16 bind to kernel 1 '_Z4hookiPKmPKiPiPb'
GPGPU-Sim uArch: Shader 17 bind to kernel 1 '_Z4hookiPKmPKiPiPb'
GPGPU-Sim uArch: Shader 18 bind to kernel 1 '_Z4hookiPKmPKiPiPb'
GPGPU-Sim uArch: Shader 19 bind to kernel 1 '_Z4hookiPKmPKiPiPb'
GPGPU-Sim uArch: Shader 20 bind to kernel 1 '_Z4hookiPKmPKiPiPb'
GPGPU-Sim uArch: Shader 21 bind to kernel 1 '_Z4hookiPKmPKiPiPb'
GPGPU-Sim uArch: Shader 22 bind to kernel 1 '_Z4hookiPKmPKiPiPb'
GPGPU-Sim uArch: Shader 23 bind to kernel 1 '_Z4hookiPKmPKiPiPb'
GPGPU-Sim uArch: Shader 24 bind to kernel 1 '_Z4hookiPKmPKiPiPb'
GPGPU-Sim uArch: Shader 25 bind to kernel 1 '_Z4hookiPKmPKiPiPb'
GPGPU-Sim uArch: Shader 26 bind to kernel 1 '_Z4hookiPKmPKiPiPb'
GPGPU-Sim uArch: Shader 27 bind to kernel 1 '_Z4hookiPKmPKiPiPb'
GPGPU-Sim uArch: Shader 28 bind to kernel 1 '_Z4hookiPKmPKiPiPb'
GPGPU-Sim uArch: Shader 29 bind to kernel 1 '_Z4hookiPKmPKiPiPb'
Destroy streams for kernel 1: size 0
kernel_name = _Z4hookiPKmPKiPiPb 
kernel_launch_uid = 1 
gpu_sim_cycle = 541283
gpu_sim_insn = 75085391
gpu_ipc =     138.7174
gpu_tot_sim_cycle = 541283
gpu_tot_sim_insn = 75085391
gpu_tot_ipc =     138.7174
gpu_tot_issued_cta = 343
gpu_occupancy = 82.7725% 
gpu_tot_occupancy = 82.7725% 
max_total_param_size = 0
gpu_stall_dramfull = 848934
gpu_stall_icnt2sh    = 0
partiton_level_parallism =       8.6192
partiton_level_parallism_total  =       8.6192
partiton_level_parallism_util =      11.0956
partiton_level_parallism_util_total  =      11.0956
L2_BW  =     376.4882 GB/Sec
L2_BW_total  =     376.4882 GB/Sec
gpu_total_sim_rate=17268

========= Core cache stats =========
L1I_cache:
	L1I_total_cache_accesses = 0
	L1I_total_cache_misses = 0
	L1I_total_cache_pending_hits = 0
	L1I_total_cache_reservation_fails = 0
L1D_cache:
	L1D_cache_core[0]: Access = 211931, Miss = 133700, Miss_rate = 0.631, Pending_hits = 1796, Reservation_fails = 449456
	L1D_cache_core[1]: Access = 238992, Miss = 160016, Miss_rate = 0.670, Pending_hits = 2050, Reservation_fails = 453091
	L1D_cache_core[2]: Access = 224419, Miss = 157105, Miss_rate = 0.700, Pending_hits = 1877, Reservation_fails = 407623
	L1D_cache_core[3]: Access = 253175, Miss = 183410, Miss_rate = 0.724, Pending_hits = 2302, Reservation_fails = 484834
	L1D_cache_core[4]: Access = 202227, Miss = 138182, Miss_rate = 0.683, Pending_hits = 1937, Reservation_fails = 403982
	L1D_cache_core[5]: Access = 206823, Miss = 142230, Miss_rate = 0.688, Pending_hits = 1983, Reservation_fails = 404107
	L1D_cache_core[6]: Access = 247425, Miss = 173353, Miss_rate = 0.701, Pending_hits = 2725, Reservation_fails = 443091
	L1D_cache_core[7]: Access = 206336, Miss = 125088, Miss_rate = 0.606, Pending_hits = 1521, Reservation_fails = 353058
	L1D_cache_core[8]: Access = 217448, Miss = 147164, Miss_rate = 0.677, Pending_hits = 1874, Reservation_fails = 426084
	L1D_cache_core[9]: Access = 221253, Miss = 141466, Miss_rate = 0.639, Pending_hits = 1991, Reservation_fails = 473786
	L1D_cache_core[10]: Access = 241830, Miss = 168145, Miss_rate = 0.695, Pending_hits = 2582, Reservation_fails = 381934
	L1D_cache_core[11]: Access = 225408, Miss = 156083, Miss_rate = 0.692, Pending_hits = 2277, Reservation_fails = 467085
	L1D_cache_core[12]: Access = 244515, Miss = 173208, Miss_rate = 0.708, Pending_hits = 2082, Reservation_fails = 463646
	L1D_cache_core[13]: Access = 221837, Miss = 145396, Miss_rate = 0.655, Pending_hits = 2118, Reservation_fails = 382584
	L1D_cache_core[14]: Access = 224863, Miss = 143042, Miss_rate = 0.636, Pending_hits = 1866, Reservation_fails = 454834
	L1D_cache_core[15]: Access = 231857, Miss = 173985, Miss_rate = 0.750, Pending_hits = 1991, Reservation_fails = 505400
	L1D_cache_core[16]: Access = 241713, Miss = 175059, Miss_rate = 0.724, Pending_hits = 2217, Reservation_fails = 452771
	L1D_cache_core[17]: Access = 217652, Miss = 149232, Miss_rate = 0.686, Pending_hits = 2027, Reservation_fails = 412619
	L1D_cache_core[18]: Access = 205728, Miss = 139354, Miss_rate = 0.677, Pending_hits = 1881, Reservation_fails = 398269
	L1D_cache_core[19]: Access = 245605, Miss = 173150, Miss_rate = 0.705, Pending_hits = 2418, Reservation_fails = 426329
	L1D_cache_core[20]: Access = 228698, Miss = 148302, Miss_rate = 0.648, Pending_hits = 1951, Reservation_fails = 371898
	L1D_cache_core[21]: Access = 204037, Miss = 126155, Miss_rate = 0.618, Pending_hits = 1795, Reservation_fails = 433478
	L1D_cache_core[22]: Access = 249248, Miss = 178670, Miss_rate = 0.717, Pending_hits = 2067, Reservation_fails = 453506
	L1D_cache_core[23]: Access = 223042, Miss = 146475, Miss_rate = 0.657, Pending_hits = 2115, Reservation_fails = 430146
	L1D_cache_core[24]: Access = 255059, Miss = 177587, Miss_rate = 0.696, Pending_hits = 2096, Reservation_fails = 507436
	L1D_cache_core[25]: Access = 224178, Miss = 142942, Miss_rate = 0.638, Pending_hits = 1943, Reservation_fails = 299681
	L1D_cache_core[26]: Access = 213683, Miss = 153384, Miss_rate = 0.718, Pending_hits = 2034, Reservation_fails = 390278
	L1D_cache_core[27]: Access = 250496, Miss = 180137, Miss_rate = 0.719, Pending_hits = 2400, Reservation_fails = 522387
	L1D_cache_core[28]: Access = 206804, Miss = 140208, Miss_rate = 0.678, Pending_hits = 1820, Reservation_fails = 332504
	L1D_cache_core[29]: Access = 212891, Miss = 148940, Miss_rate = 0.700, Pending_hits = 1743, Reservation_fails = 437768
	L1D_total_cache_accesses = 6799173
	L1D_total_cache_misses = 4641168
	L1D_total_cache_miss_rate = 0.6826
	L1D_total_cache_pending_hits = 61479
	L1D_total_cache_reservation_fails = 12823665
	L1D_cache_data_port_util = 0.139
	L1D_cache_fill_port_util = 0.308
L1C_cache:
	L1C_total_cache_accesses = 0
	L1C_total_cache_misses = 0
	L1C_total_cache_pending_hits = 0
	L1C_total_cache_reservation_fails = 0
L1T_cache:
	L1T_total_cache_accesses = 0
	L1T_total_cache_misses = 0
	L1T_total_cache_pending_hits = 0
	L1T_total_cache_reservation_fails = 0

Total_core_cache_stats:
	Total_core_cache_stats_breakdown[GLOBAL_ACC_R][HIT] = 2072248
	Total_core_cache_stats_breakdown[GLOBAL_ACC_R][HIT_RESERVED] = 61479
	Total_core_cache_stats_breakdown[GLOBAL_ACC_R][MISS] = 4391245
	Total_core_cache_stats_breakdown[GLOBAL_ACC_R][RESERVATION_FAIL] = 12823344
	Total_core_cache_stats_breakdown[GLOBAL_ACC_R][SECTOR_MISS] = 249457
	Total_core_cache_stats_breakdown[GLOBAL_ACC_R][MSHR_HIT] = 61479
	Total_core_cache_stats_breakdown[LOCAL_ACC_R][HIT] = 0
	Total_core_cache_stats_breakdown[LOCAL_ACC_R][HIT_RESERVED] = 0
	Total_core_cache_stats_breakdown[LOCAL_ACC_R][MISS] = 0
	Total_core_cache_stats_breakdown[LOCAL_ACC_R][RESERVATION_FAIL] = 0
	Total_core_cache_stats_breakdown[LOCAL_ACC_R][SECTOR_MISS] = 0
	Total_core_cache_stats_breakdown[LOCAL_ACC_R][MSHR_HIT] = 0
	Total_core_cache_stats_breakdown[CONST_ACC_R][HIT] = 0
	Total_core_cache_stats_breakdown[CONST_ACC_R][HIT_RESERVED] = 0
	Total_core_cache_stats_breakdown[CONST_ACC_R][MISS] = 0
	Total_core_cache_stats_breakdown[CONST_ACC_R][RESERVATION_FAIL] = 0
	Total_core_cache_stats_breakdown[CONST_ACC_R][SECTOR_MISS] = 0
	Total_core_cache_stats_breakdown[CONST_ACC_R][MSHR_HIT] = 0
	Total_core_cache_stats_breakdown[TEXTURE_ACC_R][HIT] = 0
	Total_core_cache_stats_breakdown[TEXTURE_ACC_R][HIT_RESERVED] = 0
	Total_core_cache_stats_breakdown[TEXTURE_ACC_R][MISS] = 0
	Total_core_cache_stats_breakdown[TEXTURE_ACC_R][RESERVATION_FAIL] = 0
	Total_core_cache_stats_breakdown[TEXTURE_ACC_R][SECTOR_MISS] = 0
	Total_core_cache_stats_breakdown[TEXTURE_ACC_R][MSHR_HIT] = 0
	Total_core_cache_stats_breakdown[GLOBAL_ACC_W][HIT] = 24278
	Total_core_cache_stats_breakdown[GLOBAL_ACC_W][HIT_RESERVED] = 0
	Total_core_cache_stats_breakdown[GLOBAL_ACC_W][MISS] = 179
	Total_core_cache_stats_breakdown[GLOBAL_ACC_W][RESERVATION_FAIL] = 321
	Total_core_cache_stats_breakdown[GLOBAL_ACC_W][SECTOR_MISS] = 287
	Total_core_cache_stats_breakdown[GLOBAL_ACC_W][MSHR_HIT] = 0
	Total_core_cache_stats_breakdown[LOCAL_ACC_W][HIT] = 0
	Total_core_cache_stats_breakdown[LOCAL_ACC_W][HIT_RESERVED] = 0
	Total_core_cache_stats_breakdown[LOCAL_ACC_W][MISS] = 0
	Total_core_cache_stats_breakdown[LOCAL_ACC_W][RESERVATION_FAIL] = 0
	Total_core_cache_stats_breakdown[LOCAL_ACC_W][SECTOR_MISS] = 0
	Total_core_cache_stats_breakdown[LOCAL_ACC_W][MSHR_HIT] = 0
	Total_core_cache_stats_breakdown[L1_WRBK_ACC][HIT] = 0
	Total_core_cache_stats_breakdown[L1_WRBK_ACC][HIT_RESERVED] = 0
	Total_core_cache_stats_breakdown[L1_WRBK_ACC][MISS] = 0
	Total_core_cache_stats_breakdown[L1_WRBK_ACC][RESERVATION_FAIL] = 0
	Total_core_cache_stats_breakdown[L1_WRBK_ACC][SECTOR_MISS] = 0
	Total_core_cache_stats_breakdown[L1_WRBK_ACC][MSHR_HIT] = 0
	Total_core_cache_stats_breakdown[L2_WRBK_ACC][HIT] = 0
	Total_core_cache_stats_breakdown[L2_WRBK_ACC][HIT_RESERVED] = 0
	Total_core_cache_stats_breakdown[L2_WRBK_ACC][MISS] = 0
	Total_core_cache_stats_breakdown[L2_WRBK_ACC][RESERVATION_FAIL] = 0
	Total_core_cache_stats_breakdown[L2_WRBK_ACC][SECTOR_MISS] = 0
	Total_core_cache_stats_breakdown[L2_WRBK_ACC][MSHR_HIT] = 0
	Total_core_cache_stats_breakdown[INST_ACC_R][HIT] = 0
	Total_core_cache_stats_breakdown[INST_ACC_R][HIT_RESERVED] = 0
	Total_core_cache_stats_breakdown[INST_ACC_R][MISS] = 0
	Total_core_cache_stats_breakdown[INST_ACC_R][RESERVATION_FAIL] = 0
	Total_core_cache_stats_breakdown[INST_ACC_R][SECTOR_MISS] = 0
	Total_core_cache_stats_breakdown[INST_ACC_R][MSHR_HIT] = 0
	Total_core_cache_stats_breakdown[L1_WR_ALLOC_R][HIT] = 0
	Total_core_cache_stats_breakdown[L1_WR_ALLOC_R][HIT_RESERVED] = 0
	Total_core_cache_stats_breakdown[L1_WR_ALLOC_R][MISS] = 0
	Total_core_cache_stats_breakdown[L1_WR_ALLOC_R][RESERVATION_FAIL] = 0
	Total_core_cache_stats_breakdown[L1_WR_ALLOC_R][SECTOR_MISS] = 0
	Total_core_cache_stats_breakdown[L1_WR_ALLOC_R][MSHR_HIT] = 0
	Total_core_cache_stats_breakdown[L2_WR_ALLOC_R][HIT] = 0
	Total_core_cache_stats_breakdown[L2_WR_ALLOC_R][HIT_RESERVED] = 0
	Total_core_cache_stats_breakdown[L2_WR_ALLOC_R][MISS] = 0
	Total_core_cache_stats_breakdown[L2_WR_ALLOC_R][RESERVATION_FAIL] = 0
	Total_core_cache_stats_breakdown[L2_WR_ALLOC_R][SECTOR_MISS] = 0
	Total_core_cache_stats_breakdown[L2_WR_ALLOC_R][MSHR_HIT] = 0
	Total_core_cache_stats_breakdown[GLOBAL_ACC_R][TOTAL_ACCESS] = 6774429
	Total_core_cache_stats_breakdown[GLOBAL_ACC_W][TOTAL_ACCESS] = 24744

Total_core_cache_fail_stats:
	Total_core_cache_fail_stats_breakdown[GLOBAL_ACC_R][MISS_QUEUE_FULL] = 2236953
	Total_core_cache_fail_stats_breakdown[GLOBAL_ACC_R][MSHR_ENRTY_FAIL] = 10586391
	Total_core_cache_fail_stats_breakdown[GLOBAL_ACC_W][MISS_QUEUE_FULL] = 321
ctas_completed 343, Shader 0 warp_id issue ditsribution:
warp_id:
0, 1, 2, 3, 4, 5, 6, 7, 8, 9, 10, 11, 12, 13, 14, 15, 16, 17, 18, 19, 20, 21, 22, 23, 24, 25, 26, 27, 28, 29, 30, 31, 
distro:
1768, 2462, 1766, 2486, 3206, 3180, 3840, 3182, 2488, 2370, 2546, 3382, 2662, 2904, 3262, 3202, 2824, 2946, 3128, 2826, 3122, 3120, 2828, 3182, 4204, 3324, 3972, 4384, 3788, 3844, 4136, 3844, 
gpgpu_n_tot_thrd_icount = 100125056
gpgpu_n_tot_w_icount = 3128908
gpgpu_n_stall_shd_mem = 4005714
gpgpu_n_mem_read_local = 0
gpgpu_n_mem_write_local = 0
gpgpu_n_mem_read_global = 4640702
gpgpu_n_mem_write_global = 24744
gpgpu_n_mem_texture = 0
gpgpu_n_mem_const = 0
gpgpu_n_load_insn  = 15530938
gpgpu_n_store_insn = 233810
gpgpu_n_shmem_insn = 0
gpgpu_n_sstarr_insn = 0
gpgpu_n_tex_insn = 0
gpgpu_n_const_mem_insn = 0
gpgpu_n_param_mem_insn = 439040
gpgpu_n_shmem_bkconflict = 0
gpgpu_n_cache_bkconflict = 0
gpgpu_n_intrawarp_mshr_merge = 0
gpgpu_n_cmem_portconflict = 0
gpgpu_stall_shd_mem[c_mem][resource_stall] = 0
gpgpu_stall_shd_mem[s_mem][bk_conf] = 0
gpgpu_stall_shd_mem[gl_mem][resource_stall] = 3802218
gpgpu_stall_shd_mem[gl_mem][coal_stall] = 203496
gpgpu_stall_shd_mem[gl_mem][data_port_stall] = 0
gpu_reg_bank_conflict_stalls = 0
Warp Occupancy Distribution:
Stall:798519	W0_Idle:596629	W0_Scoreboard:55666384	W1:1970	W2:38808	W3:662	W4:41320	W5:3400	W6:210018	W7:756	W8:51144	W9:658	W10:36222	W11:2876	W12:106256	W13:748	W14:82248	W15:1012	W16:41120	W17:1624	W18:65424	W19:2224	W20:113510	W21:922	W22:43176	W23:1510	W24:52106	W25:2722	W26:193592	W27:33018	W28:52179	W29:29130	W30:63314	W31:49102	W32:1806137
single_issue_nums: WS0:781720	WS1:781126	WS2:776526	WS3:789536	
dual_issue_nums: WS0:0	WS1:0	WS2:0	WS3:0	
traffic_breakdown_coretomem[GLOBAL_ACC_R] = 37125616 {8:4640702,}
traffic_breakdown_coretomem[GLOBAL_ACC_W] = 989760 {40:24744,}
traffic_breakdown_memtocore[GLOBAL_ACC_R] = 185628080 {40:4640702,}
traffic_breakdown_memtocore[GLOBAL_ACC_W] = 197952 {8:24744,}
maxmflatency = 8834 
max_icnt2mem_latency = 5235 
maxmrqlatency = 4596 
max_icnt2sh_latency = 283 
averagemflatency = 653 
avg_icnt2mem_latency = 254 
avg_mrq_latency = 129 
avg_icnt2sh_latency = 15 
mrq_lat_table:405463 	13290 	28264 	60138 	110048 	160118 	230367 	307351 	214642 	26291 	8557 	4003 	45 	0 	0 	0 	0 	0 	0 	0 	0 	0 	0 	0 	0 	0 	0 	0 	0 	0 	0 	0 	
dq_lat_table:0 	0 	0 	0 	0 	0 	0 	0 	0 	0 	0 	0 	0 	0 	0 	0 	0 	0 	0 	0 	0 	0 	0 	0 	0 	0 	0 	0 	0 	0 	0 	0 	
mf_lat_table:0 	0 	0 	0 	0 	0 	0 	599959 	2600192 	607022 	657430 	168031 	32804 	8 	0 	0 	0 	0 	0 	0 	0 	0 	0 	0 	0 	0 	0 	0 	0 	0 	0 	0 	
icnt2mem_lat_table:0 	0 	0 	0 	0 	1687847 	1098598 	828756 	336776 	494646 	167767 	50380 	676 	0 	0 	0 	0 	0 	0 	0 	0 	0 	0 	0 	
icnt2sh_lat_table:0 	1944981 	764637 	702826 	591739 	408148 	196142 	56931 	42 	0 	0 	0 	0 	0 	0 	0 	0 	0 	0 	0 	0 	0 	0 	0 	
mf_lat_pw_table:0 	0 	0 	0 	0 	0 	0 	0 	291 	40 	200 	5 	0 	0 	0 	0 	0 	0 	0 	0 	0 	0 	0 	0 	0 	0 	0 	0 	0 	0 	0 	0 	
maximum concurrent accesses to same row:
dram[0]:        59        59        63        64        64        64        64        64        57        64        13        12         8        10        10         8 
dram[1]:        64        64        51        52        51        51        54        58        35        61        12        10        21         9         9        10 
dram[2]:        50        59        34        34        48        48        64        64        57        57         8         9        10        11        11        13 
dram[3]:        64        64        60        51        53        53        56        58        61        64         8        13        14         8         8         9 
dram[4]:        59        63        62        64        64        64        64        64        64        64        10         9        10         8         8         8 
dram[5]:        64        64        61        64        61        64        64        64        64        64        10        10         9        13         9         8 
dram[6]:        64        59        52        63        64        64        64        64        64        64        14         8        11         8         8         8 
dram[7]:        64        64        61        61        64        64        64        64        64        64         8        13        10        11        10         8 
dram[8]:        44        50        58        50        53        53        54        54        64        64        10        12        12         8         8         8 
dram[9]:        64        64        64        64        60        60        54        54        64        64         8         8        12        12         9         8 
dram[10]:        64        59        61        49        64        64        64        64        64        64        11         9        15        12        12        12 
dram[11]:        64        64        64        64        64        64        64        64        46        64         9        20        12         8         8         8 
maximum service time to same row:
dram[0]:      6705      6705      6834      6825      6920     16502      6986      6981      7096      7223      7014      6953      6809      6802      6831      6841 
dram[1]:      6499      6519      6543      6555      6675      6676      6792      6910      6800      7101      6904      6808      6685      6550      6735      6556 
dram[2]:      6571      6741      6553      6572      6651      6655      6798      6766      6860      6973      6751      6790      6561      6569      6607      6573 
dram[3]:      6588      6779      6809      6594      6754      6808      6903      6956      7240      7340      6849      6931      6593      6593      6664      6857 
dram[4]:      6761      6807      6837      6864      6899      6951      7001      6960      7063      7118      6987      6935      6814      6800     21299      6880 
dram[5]:      6755      6605      6670      6873      6780      6859      6920      6911      6987      7103      6931      6889      6669      6669      6701     14474 
dram[6]:      6785      6677      6739      6844      6931      6919      6927      6919      7012      7067      6985      6932      6658      6793      6805      6746 
dram[7]:      6713      6791      6743      6759      6974      6922      7027      7067      7074      7240      6991      7117      6933      6874      6772      6953 
dram[8]:      6532      6621      6821      6643      6781     12774      6877      6868      7000      7117      6857      6968      6667      6649      6650      6687 
dram[9]:      6510      6547      6595      6708      6814      6786      6872      6874      7005      7091      6887      6867      6667      6651      6883     20960 
dram[10]:      6764      6664      6838      6734      6942     16783      6911      6934      6954      7104      6931      6957      6782      6756      6929      6773 
dram[11]:      6704      6671      6797      6720      6912      6915      6990      7007      7074      7314      7017      6957      6792      6750      8190      6840 
average row accesses per activate:
dram[0]:  1.327694  1.419039  1.389596  1.457573  1.379207  1.381152  1.347483  1.340127  1.382456  1.376928  1.404191  1.391196  1.369677  1.337328  1.309100  1.310592 
dram[1]:  1.355480  1.372045  1.430212  1.426736  1.373400  1.414084  1.341897  1.330854  1.360229  1.387200  1.355545  1.397808  1.356444  1.352113  1.330814  1.325330 
dram[2]:  1.348521  1.388956  1.447445  1.465572  1.397313  1.384307  1.323540  1.328028  1.355139  1.389317  1.366387  1.387027  1.362679  1.352552  1.303250  1.331380 
dram[3]:  1.341321  1.374735  1.392342  1.459540  1.390069  1.376826  1.342903  1.314447  1.334063  1.377904  1.348546  1.344238  1.339594  1.341880  1.298354  1.301763 
dram[4]:  1.416695  1.366909  1.409136  1.421794  1.397810  1.380000  1.363557  1.326999  1.383665  1.350775  1.381889  1.354658  1.360935  1.361911  1.302698  1.294097 
dram[5]:  1.412394  1.408499  1.431628  1.412587  1.373033  1.349747  1.349645  1.371623  1.400594  1.378625  1.375287  1.339601  1.330984  1.356566  1.304302  1.324616 
dram[6]:  1.368258  1.418418  1.455574  1.464244  1.380265  1.387170  1.341433  1.362169  1.353311  1.423348  1.371131  1.376814  1.342028  1.371508  1.310351  1.319214 
dram[7]:  1.387637  1.367048  1.407124  1.433475  1.359248  1.389842  1.371883  1.352911  1.399334  1.391025  1.345813  1.366590  1.339688  1.367387  1.345530  1.313858 
dram[8]:  1.451137  1.349479  1.486163  1.438501  1.421860  1.367834  1.360597  1.303879  1.381303  1.344691  1.387988  1.341622  1.388592  1.319381  1.325045  1.300088 
dram[9]:  1.396268  1.350052  1.512763  1.438772  1.537488  1.370084  1.419732  1.342796  1.468477  1.404223  1.425633  1.358345  1.443865  1.344610  1.334974  1.300087 
dram[10]:  1.391931  1.384742  1.459318  1.419184  1.410063  1.406586  1.348987  1.368430  1.417301  1.430125  1.406984  1.414674  1.370289  1.383428  1.309113  1.330357 
dram[11]:  1.352169  1.390070  1.440416  1.471812  1.346692  1.414051  1.351026  1.352549  1.364781  1.435648  1.363912  1.404117  1.331194  1.348470  1.316051  1.325574 
average row locality = 1568577/1140772 = 1.375014
number of total memory accesses made:
dram[0]:         0         0         0         0         0         0         0         0         0         0         0         0         0         0         0         0 
dram[1]:         0         0         0         0         0         0         0         0         0         0         0         0         0         0         0         0 
dram[2]:         0         0         0         0         0         0         0         0         0         0         0         0         0         0         0         0 
dram[3]:         0         0         0         0         0         0         0         0         0         0         0         0         0         0         0         0 
dram[4]:         0         0         0         0         0         0         0         0         0         0         0         0         0         0         0         0 
dram[5]:         0         0         0         0         0         0         0         0         0         0         0         0         0         0         0         0 
dram[6]:         0         0         0         0         0         0         0         0         0         0         0         0         0         0         0         0 
dram[7]:         0         0         0         0         0         0         0         0         0         0         0         0         0         0         0         0 
dram[8]:         0         0         0         0         0         0         0         0         0         0         0         0         0         0         0         0 
dram[9]:         0         0         0         0         0         0         0         0         0         0         0         0         0         0         0         0 
dram[10]:         0         0         0         0         0         0         0         0         0         0         0         0         0         0         0         0 
dram[11]:         0         0         0         0         0         0         0         0         0         0         0         0         0         0         0         0 
total accesses: 0
min_bank_accesses = 0!
min_chip_accesses = 0!
number of total read accesses:
dram[0]:      7828      8252      8500      8598      8254      8201      7652      7599      8299      8191      8351      8387      8241      8123      7648      7679 
dram[1]:      7951      7927      8696      8523      8241      8192      7763      7486      8288      8198      8347      8400      8294      8134      7921      7615 
dram[2]:      7822      8054      8444      8729      8300      8255      7589      7652      8144      8280      7972      8302      8256      8349      7535      7723 
dram[3]:      7762      7750      8084      8744      8098      8368      7454      7660      7900      8226      8054      8163      7891      8148      7334      7529 
dram[4]:      8159      7688      8464      8252      8279      8054      7738      7380      8268      7903      8135      7969      8125      8014      7722      7451 
dram[5]:      8162      8196      8544      8465      8271      7987      7785      7643      8473      8301      8377      8036      7916      8027      7484      7594 
dram[6]:      7913      8621      8592      8843      8108      8585      7539      7987      8152      8857      8268      8519      8163      8412      7576      7717 
dram[7]:      8107      7992      8432      8749      8004      8313      7735      7785      8392      8409      8037      8354      8127      8330      7791      7372 
dram[8]:      8726      7756      9160      8418      8783      7824      7993      7470      8801      8106      8629      8022      8808      7833      8043      7399 
dram[9]:      8739      7843      9341      8460      9322      8130      8461      7498      9225      8226      8994      8059      9123      8081      8134      7478 
dram[10]:      8192      8366      8930      8814      8217      8608      7703      7968      8548      8788      8487      8565      8048      8498      7505      7891 
dram[11]:      7804      8149      8563      8753      7879      8677      7479      7883      8107      8699      8089      8375      7860      8267      7404      7908 
total dram reads = 1564902
bank skew: 9341/7334 = 1.27
chip skew: 135114/127165 = 1.06
number of total write accesses:
dram[0]:        73        74        72        74        78        71        83        82        77        76        69        73        58        64        17        16 
dram[1]:        79        79        73        86        69        73        73        79        74        68        53        65        62        65        15        12 
dram[2]:        72        72        76        71        73        67        79        79        68        63        66        60        60        58        12        12 
dram[3]:        70        69        74        76        73        73        80        70        68        68        50        50        77        45        12        12 
dram[4]:        70        72        70        70        65        69        76        76        64        71        50        56        72        66        12        12 
dram[5]:        74        78        68        67        66        65        72        73        61        69        57        57        54        75        13        14 
dram[6]:        83        71        77        74        69        70        78        81        71        69        57        69        57        73        21        21 
dram[7]:        68        73        72        74        74        85        78        75        70        75        54        60        61        62        17        16 
dram[8]:        74        68        74        81        78        80        80        76        71        78        56        62        68        55        16        18 
dram[9]:        68        65        79        78        79        72        88        74        72        69        61        59        57        70        16        16 
dram[10]:        70        71        69        71        76        70        82        80        76        79        56        54        69        61        22        18 
dram[11]:        71        78        68        71        66        67        81        75        74        83        53        64        57        46        26        21 
total dram writes = 12109
bank skew: 88/12 = 7.33
chip skew: 1057/963 = 1.10
average mf latency per bank:
dram[0]:       1778      1796      1728      1788      1709      1748      1723      1726      1671      1721      1688      1648      1680      1686      1708      1732
dram[1]:       1727      1827      1724      1775      1652      1754      1613      1729      1642      1693      1610      1669      1589      1692      1653      1756
dram[2]:       1766      1783      1802      1773      1687      1696      1701      1669      1666      1683      1662      1646      1663      1652      1731      1715
dram[3]:       2190      1902      2198      1816      2093      1727      2085      1747      2031      1736      1959      1673      2051      1710      2159      1805
dram[4]:       2031      1834      2000      1793      1978      1744      1965      1736      1916      1722      1875      1649      1905      1717      1932      1744
dram[5]:       1837      1723      1802      1697      1749      1661      1763      1714      1745      1626      1668      1591      1712      1646      1783      1675
dram[6]:       2412      1850      2372      1865      2281      1748      2326      1764      2263      1765      2136      1702      2225      1747      2406      1829
dram[7]:       1809      1896      1828      1835      1770      1770      1755      1802      1729      1801      1685      1689      1702      1758      1773      1856
dram[8]:       3703      2263      3697      2290      3441      2215      3360      2124      3305      2120      3200      2000      3394      2127      3597      2241
dram[9]:       2364      2042      2318      2076      2442      2007      2420      2010      2360      2008      2224      1889      2273      2022      2333      2070
dram[10]:       1725      1709      1693      1686      1717      1663      1671      1621      1630      1641      1568      1610      1960      1633      1670      1664
dram[11]:       1868      2398      1860      2374      1835      2218      1847      2176      1770      2215      1730      2168      1792      2218      1863      2365
maximum mf latency per bank:
dram[0]:       3551      5124      3690      4634      4728      3161      5850      4044      3564      3349      4525      3282      3485      3527      3456      3436
dram[1]:       3484      5197      3778      3650      3577      3711      3428      3455      3712      3387      4041      3371      3914      3578      3494      3380
dram[2]:       4968      4966      5012      4873      3277      4199      3576      3156      3602      3274      3396      3505      3346      3318      3482      3116
dram[3]:       6509      5183      6665      4099      5221      3562      5084      3687      4566      3733      4684      3647      4941      3764      4504      3609
dram[4]:       5285      4870      4115      4306      4184      3662      5526      3373      4267      3913      3784      3466      3812      3928      3765      3644
dram[5]:       6470      4049      4757      3864      3824      3600      3808      6181      3633      3324      4259      3443      3752      3637      3714      3537
dram[6]:       7155      4183      6960      4892      5289      3606      5492      3473      5497      3764      5339      3561      5462      3513      5839      3754
dram[7]:       5202      4665      5585      4673      5840      3634      3690      4076      3625      3835      3297      4027      3419      3888      3560      5834
dram[8]:       8046      6800      8090      5952      8834      5951      7970      4248      6549      4055      6351      3882      6645      4398      7651      4162
dram[9]:       3475      6070      4791      6252      5377      4103      4243      3979      3671      4514      3615      3814      3844      5224      3602      3891
dram[10]:       4679      3421      4109      3426      3973      3277      3789      5390      3439      3741      3241      4202      5293      3563      3423      3561
dram[11]:       5367      5894      4674      6318      3589      5048      5694      5444      3845      5052      3787      4831      3754      5114      3712      6557

Number of Memory Banks Accessed per Memory Operation per Warp (from 0):
0	0	0	0	0	0	0	0	0	0	0	0	0	0	0	0	0	0	0	0	0	0	0	0	0	0	0	0	0	0	0	0	0	0	0	0	0	0	0	0	0	0	0	0	0	0	0	0	0	0	0	0	0	0	0	0	0	0	0	0	0	0	0	0	0	0	0	0	0	0	0	0	0	0	0	0	0	0	0	0	0	0	0	0	0	0	0	0	0	0	0	0	0	0	0	0	0	0	0	0	0	0	0	0	0	0	0	0	0	0	0	0	0	0	0	0	0	0	0	0	0	0	0	0	0	0	0	0	0	0	0	0	0	0	0	0	0	0	0	0	0	0	0	0	0	0	0	0	0	0	0	0	0	0	0	0	0	0	0	0	0	0	0	0	0	0	0	0	0	0	0	0	0	0	0	0	0	0	0	0	0	0	0	0	0	0	0	0	0	0	0	0	
Average # of Memory Banks Accessed per Memory Operation per Warp=-nan

position of mrq chosen
0	0	0	0	0	0	0	0	0	0	0	0	0	0	0	0	0	0	0	0	0	0	0	0	0	0	0	0	0	0	0	0	0	0	0	0	0	0	0	0	0	0	0	0	0	0	0	0	0	0	0	0	0	0	0	0	0	0	0	0	0	0	0	0	

average position of mrq chosen = -nan
Memory Partition 0: 
Cache L2_bank_000:
MSHR contents

Cache L2_bank_001:
MSHR contents

In Dram Latency Queue (total = 0): 
DRAM[0]: 16 bks, busW=2 BL=16 CL=24, tRRD=12 tCCD=4, tRCD=24 tRAS=55 tRP=24 tRC=78
n_cmd=1388101 n_nop=1112292 n_act=94975 n_pre=94959 n_ref_event=0 n_req=130141 n_rd=129803 n_rd_L2_A=0 n_write=0 n_wr_bk=1057 bw_util=0.3771
n_activity=1284420 dram_eff=0.4075
bk0: 7828a 584302i bk1: 8252a 569811i bk2: 8500a 561447i bk3: 8598a 561276i bk4: 8254a 560750i bk5: 8201a 568965i bk6: 7652a 597237i bk7: 7599a 605893i bk8: 8299a 570130i bk9: 8191a 562559i bk10: 8351a 553501i bk11: 8387a 562383i bk12: 8241a 559189i bk13: 8123a 569134i bk14: 7648a 601837i bk15: 7679a 602382i 

------------------------------------------------------------------------

Row_Buffer_Locality = 0.270299
Row_Buffer_Locality_read = 0.270425
Row_Buffer_Locality_write = 0.221893
Bank_Level_Parallism = 10.430812
Bank_Level_Parallism_Col = 2.366686
Bank_Level_Parallism_Ready = 1.078312
write_to_read_ratio_blp_rw_average = 0.071319
GrpLevelPara = 2.036156 

BW Util details:
bwutil = 0.377091 
total_CMD = 1388101 
util_bw = 523440 
Wasted_Col = 701134 
Wasted_Row = 37158 
Idle = 126369 

BW Util Bottlenecks: 
RCDc_limit = 1318818 
RCDWRc_limit = 1839 
WTRc_limit = 23682 
RTWc_limit = 160081 
CCDLc_limit = 147825 
rwq = 0 
CCDLc_limit_alone = 135212 
WTRc_limit_alone = 22536 
RTWc_limit_alone = 148614 

Commands details: 
total_CMD = 1388101 
n_nop = 1112292 
Read = 129803 
Write = 0 
L2_Alloc = 0 
L2_WB = 1057 
n_act = 94975 
n_pre = 94959 
n_ref = 0 
n_req = 130141 
total_req = 130860 

Dual Bus Interface Util: 
issued_total_row = 189934 
issued_total_col = 130860 
Row_Bus_Util =  0.136830 
CoL_Bus_Util = 0.094273 
Either_Row_CoL_Bus_Util = 0.198695 
Issued_on_Two_Bus_Simul_Util = 0.032408 
issued_two_Eff = 0.163102 
queue_avg = 31.637018 


dram_util_bins: 0 0 0 0 0 0 0 0 0 0
dram_eff_bins: 0 0 0 0 0 0 0 0 0 0
mrqq: max=64 avg=31.637
Memory Partition 1: 
Cache L2_bank_002:
MSHR contents

Cache L2_bank_003:
MSHR contents

In Dram Latency Queue (total = 0): 
DRAM[1]: 16 bks, busW=2 BL=16 CL=24, tRRD=12 tCCD=4, tRCD=24 tRAS=55 tRP=24 tRC=78
n_cmd=1388101 n_nop=1113516 n_act=95139 n_pre=95123 n_ref_event=0 n_req=130292 n_rd=129976 n_rd_L2_A=0 n_write=0 n_wr_bk=1025 bw_util=0.3775
n_activity=1290077 dram_eff=0.4062
bk0: 7951a 572765i bk1: 7927a 580974i bk2: 8696a 552395i bk3: 8523a 567290i bk4: 8241a 566088i bk5: 8192a 596482i bk6: 7763a 616909i bk7: 7486a 622541i bk8: 8288a 560311i bk9: 8198a 573328i bk10: 8347a 556068i bk11: 8400a 581485i bk12: 8294a 557049i bk13: 8134a 582327i bk14: 7921a 588395i bk15: 7615a 609425i 

------------------------------------------------------------------------

Row_Buffer_Locality = 0.269878
Row_Buffer_Locality_read = 0.270004
Row_Buffer_Locality_write = 0.218354
Bank_Level_Parallism = 10.315649
Bank_Level_Parallism_Col = 1.000000
Bank_Level_Parallism_Ready = 1.080218
write_to_read_ratio_blp_rw_average = 0.000000
GrpLevelPara = 0.000000 

BW Util details:
bwutil = 0.377497 
total_CMD = 1388101 
util_bw = 524004 
Wasted_Col = 703325 
Wasted_Row = 39444 
Idle = 121328 

BW Util Bottlenecks: 
RCDc_limit = 1320494 
RCDWRc_limit = 1669 
WTRc_limit = 22759 
RTWc_limit = 117847 
CCDLc_limit = 145912 
rwq = 0 
CCDLc_limit_alone = 136662 
WTRc_limit_alone = 21650 
RTWc_limit_alone = 109706 

Commands details: 
total_CMD = 1388101 
n_nop = 1113516 
Read = 129976 
Write = 0 
L2_Alloc = 0 
L2_WB = 1025 
n_act = 95139 
n_pre = 95123 
n_ref = 0 
n_req = 130292 
total_req = 131001 

Dual Bus Interface Util: 
issued_total_row = 190262 
issued_total_col = 131001 
Row_Bus_Util =  0.137066 
CoL_Bus_Util = 0.094374 
Either_Row_CoL_Bus_Util = 0.197813 
Issued_on_Two_Bus_Simul_Util = 0.033627 
issued_two_Eff = 0.169995 
queue_avg = 28.766062 


dram_util_bins: 0 0 0 0 0 0 0 0 0 0
dram_eff_bins: 0 0 0 0 0 0 0 0 0 0
mrqq: max=64 avg=28.7661
Memory Partition 2: 
Cache L2_bank_004:
MSHR contents

Cache L2_bank_005:
MSHR contents

In Dram Latency Queue (total = 0): 
DRAM[2]: 16 bks, busW=2 BL=16 CL=24, tRRD=12 tCCD=4, tRCD=24 tRAS=55 tRP=24 tRC=78
n_cmd=1388101 n_nop=1114274 n_act=94620 n_pre=94604 n_ref_event=0 n_req=129707 n_rd=129406 n_rd_L2_A=0 n_write=0 n_wr_bk=988 bw_util=0.3757
n_activity=1287282 dram_eff=0.4052
bk0: 7822a 587900i bk1: 8054a 594209i bk2: 8444a 554922i bk3: 8729a 559296i bk4: 8300a 567642i bk5: 8255a 576280i bk6: 7589a 617595i bk7: 7652a 625762i bk8: 8144a 584884i bk9: 8280a 579060i bk10: 7972a 586447i bk11: 8302a 582034i bk12: 8256a 567243i bk13: 8349a 566058i bk14: 7535a 620501i bk15: 7723a 615251i 

------------------------------------------------------------------------

Row_Buffer_Locality = 0.270587
Row_Buffer_Locality_read = 0.270737
Row_Buffer_Locality_write = 0.205980
Bank_Level_Parallism = 10.249755
Bank_Level_Parallism_Col = 2.304504
Bank_Level_Parallism_Ready = 1.076775
write_to_read_ratio_blp_rw_average = 0.056676
GrpLevelPara = 1.995838 

BW Util details:
bwutil = 0.375748 
total_CMD = 1388101 
util_bw = 521576 
Wasted_Col = 703622 
Wasted_Row = 39597 
Idle = 123306 

BW Util Bottlenecks: 
RCDc_limit = 1316596 
RCDWRc_limit = 1653 
WTRc_limit = 22503 
RTWc_limit = 124738 
CCDLc_limit = 145360 
rwq = 0 
CCDLc_limit_alone = 136046 
WTRc_limit_alone = 21465 
RTWc_limit_alone = 116462 

Commands details: 
total_CMD = 1388101 
n_nop = 1114274 
Read = 129406 
Write = 0 
L2_Alloc = 0 
L2_WB = 988 
n_act = 94620 
n_pre = 94604 
n_ref = 0 
n_req = 129707 
total_req = 130394 

Dual Bus Interface Util: 
issued_total_row = 189224 
issued_total_col = 130394 
Row_Bus_Util =  0.136319 
CoL_Bus_Util = 0.093937 
Either_Row_CoL_Bus_Util = 0.197267 
Issued_on_Two_Bus_Simul_Util = 0.032988 
issued_two_Eff = 0.167226 
queue_avg = 29.784143 


dram_util_bins: 0 0 0 0 0 0 0 0 0 0
dram_eff_bins: 0 0 0 0 0 0 0 0 0 0
mrqq: max=64 avg=29.7841
Memory Partition 3: 
Cache L2_bank_006:
MSHR contents

Cache L2_bank_007:
MSHR contents

In Dram Latency Queue (total = 0): 
DRAM[3]: 16 bks, busW=2 BL=16 CL=24, tRRD=12 tCCD=4, tRCD=24 tRAS=55 tRP=24 tRC=78
n_cmd=1388101 n_nop=1115994 n_act=94056 n_pre=94040 n_ref_event=0 n_req=127453 n_rd=127165 n_rd_L2_A=0 n_write=0 n_wr_bk=967 bw_util=0.3692
n_activity=1284428 dram_eff=0.399
bk0: 7762a 605083i bk1: 7750a 611802i bk2: 8084a 587069i bk3: 8744a 567588i bk4: 8098a 596075i bk5: 8368a 577005i bk6: 7454a 620932i bk7: 7660a 617108i bk8: 7900a 601161i bk9: 8226a 586489i bk10: 8054a 600488i bk11: 8163a 589086i bk12: 7891a 595874i bk13: 8148a 587344i bk14: 7334a 636995i bk15: 7529a 620906i 

------------------------------------------------------------------------

Row_Buffer_Locality = 0.262112
Row_Buffer_Locality_read = 0.262266
Row_Buffer_Locality_write = 0.194444
Bank_Level_Parallism = 10.110705
Bank_Level_Parallism_Col = 2.272407
Bank_Level_Parallism_Ready = 1.081113
write_to_read_ratio_blp_rw_average = 0.050854
GrpLevelPara = 1.976015 

BW Util details:
bwutil = 0.369230 
total_CMD = 1388101 
util_bw = 512528 
Wasted_Col = 707218 
Wasted_Row = 40772 
Idle = 127583 

BW Util Bottlenecks: 
RCDc_limit = 1322522 
RCDWRc_limit = 1649 
WTRc_limit = 22875 
RTWc_limit = 108934 
CCDLc_limit = 139622 
rwq = 0 
CCDLc_limit_alone = 131104 
WTRc_limit_alone = 21704 
RTWc_limit_alone = 101587 

Commands details: 
total_CMD = 1388101 
n_nop = 1115994 
Read = 127165 
Write = 0 
L2_Alloc = 0 
L2_WB = 967 
n_act = 94056 
n_pre = 94040 
n_ref = 0 
n_req = 127453 
total_req = 128132 

Dual Bus Interface Util: 
issued_total_row = 188096 
issued_total_col = 128132 
Row_Bus_Util =  0.135506 
CoL_Bus_Util = 0.092307 
Either_Row_CoL_Bus_Util = 0.196028 
Issued_on_Two_Bus_Simul_Util = 0.031785 
issued_two_Eff = 0.162146 
queue_avg = 28.317060 


dram_util_bins: 0 0 0 0 0 0 0 0 0 0
dram_eff_bins: 0 0 0 0 0 0 0 0 0 0
mrqq: max=64 avg=28.3171
Memory Partition 4: 
Cache L2_bank_008:
MSHR contents

Cache L2_bank_009:
MSHR contents

In Dram Latency Queue (total = 0): 
DRAM[4]: 16 bks, busW=2 BL=16 CL=24, tRRD=12 tCCD=4, tRCD=24 tRAS=55 tRP=24 tRC=78
n_cmd=1388101 n_nop=1116905 n_act=93541 n_pre=93525 n_ref_event=0 n_req=127884 n_rd=127601 n_rd_L2_A=0 n_write=0 n_wr_bk=971 bw_util=0.3705
n_activity=1280963 dram_eff=0.4015
bk0: 8159a 586687i bk1: 7688a 615435i bk2: 8464a 579129i bk3: 8252a 590325i bk4: 8279a 585855i bk5: 8054a 589301i bk6: 7738a 627923i bk7: 7380a 646123i bk8: 8268a 574287i bk9: 7903a 597346i bk10: 8135a 605593i bk11: 7969a 612345i bk12: 8125a 587472i bk13: 8014a 603946i bk14: 7722a 607991i bk15: 7451a 622161i 

------------------------------------------------------------------------

Row_Buffer_Locality = 0.268626
Row_Buffer_Locality_read = 0.268815
Row_Buffer_Locality_write = 0.183746
Bank_Level_Parallism = 10.118471
Bank_Level_Parallism_Col = 2.304867
Bank_Level_Parallism_Ready = 1.078359
write_to_read_ratio_blp_rw_average = 0.056495
GrpLevelPara = 1.995899 

BW Util details:
bwutil = 0.370498 
total_CMD = 1388101 
util_bw = 514288 
Wasted_Col = 700817 
Wasted_Row = 41554 
Idle = 131442 

BW Util Bottlenecks: 
RCDc_limit = 1307899 
RCDWRc_limit = 1608 
WTRc_limit = 20083 
RTWc_limit = 127334 
CCDLc_limit = 141329 
rwq = 0 
CCDLc_limit_alone = 131227 
WTRc_limit_alone = 19008 
RTWc_limit_alone = 118307 

Commands details: 
total_CMD = 1388101 
n_nop = 1116905 
Read = 127601 
Write = 0 
L2_Alloc = 0 
L2_WB = 971 
n_act = 93541 
n_pre = 93525 
n_ref = 0 
n_req = 127884 
total_req = 128572 

Dual Bus Interface Util: 
issued_total_row = 187066 
issued_total_col = 128572 
Row_Bus_Util =  0.134764 
CoL_Bus_Util = 0.092624 
Either_Row_CoL_Bus_Util = 0.195372 
Issued_on_Two_Bus_Simul_Util = 0.032016 
issued_two_Eff = 0.163874 
queue_avg = 29.560806 


dram_util_bins: 0 0 0 0 0 0 0 0 0 0
dram_eff_bins: 0 0 0 0 0 0 0 0 0 0
mrqq: max=64 avg=29.5608
Memory Partition 5: 
Cache L2_bank_010:
MSHR contents

Cache L2_bank_011:
MSHR contents

In Dram Latency Queue (total = 0): 
DRAM[5]: 16 bks, busW=2 BL=16 CL=24, tRRD=12 tCCD=4, tRCD=24 tRAS=55 tRP=24 tRC=78
n_cmd=1388101 n_nop=1114047 n_act=94549 n_pre=94533 n_ref_event=0 n_req=129540 n_rd=129261 n_rd_L2_A=0 n_write=0 n_wr_bk=963 bw_util=0.3753
n_activity=1287034 dram_eff=0.4047
bk0: 8162a 578921i bk1: 8196a 569680i bk2: 8544a 559692i bk3: 8465a 569369i bk4: 8271a 577381i bk5: 7987a 597264i bk6: 7785a 619355i bk7: 7643a 617356i bk8: 8473a 558581i bk9: 8301a 584644i bk10: 8377a 574439i bk11: 8036a 601082i bk12: 7916a 602762i bk13: 8027a 584515i bk14: 7484a 622078i bk15: 7594a 618893i 

------------------------------------------------------------------------

Row_Buffer_Locality = 0.270195
Row_Buffer_Locality_read = 0.270314
Row_Buffer_Locality_write = 0.215054
Bank_Level_Parallism = 10.219440
Bank_Level_Parallism_Col = 2.279866
Bank_Level_Parallism_Ready = 1.074577
write_to_read_ratio_blp_rw_average = 0.049547
GrpLevelPara = 1.983133 

BW Util details:
bwutil = 0.375258 
total_CMD = 1388101 
util_bw = 520896 
Wasted_Col = 702667 
Wasted_Row = 40071 
Idle = 124467 

BW Util Bottlenecks: 
RCDc_limit = 1316796 
RCDWRc_limit = 1573 
WTRc_limit = 20646 
RTWc_limit = 108539 
CCDLc_limit = 143571 
rwq = 0 
CCDLc_limit_alone = 134637 
WTRc_limit_alone = 19633 
RTWc_limit_alone = 100618 

Commands details: 
total_CMD = 1388101 
n_nop = 1114047 
Read = 129261 
Write = 0 
L2_Alloc = 0 
L2_WB = 963 
n_act = 94549 
n_pre = 94533 
n_ref = 0 
n_req = 129540 
total_req = 130224 

Dual Bus Interface Util: 
issued_total_row = 189082 
issued_total_col = 130224 
Row_Bus_Util =  0.136216 
CoL_Bus_Util = 0.093814 
Either_Row_CoL_Bus_Util = 0.197431 
Issued_on_Two_Bus_Simul_Util = 0.032600 
issued_two_Eff = 0.165121 
queue_avg = 28.964285 


dram_util_bins: 0 0 0 0 0 0 0 0 0 0
dram_eff_bins: 0 0 0 0 0 0 0 0 0 0
mrqq: max=64 avg=28.9643
Memory Partition 6: 
Cache L2_bank_012:
MSHR contents

Cache L2_bank_013:
MSHR contents

In Dram Latency Queue (total = 0): 
DRAM[6]: 16 bks, busW=2 BL=16 CL=24, tRRD=12 tCCD=4, tRCD=24 tRAS=55 tRP=24 tRC=78
n_cmd=1388101 n_nop=1111136 n_act=95907 n_pre=95891 n_ref_event=0 n_req=132178 n_rd=131852 n_rd_L2_A=0 n_write=0 n_wr_bk=1041 bw_util=0.3829
n_activity=1290293 dram_eff=0.412
bk0: 7913a 566857i bk1: 8621a 539537i bk2: 8592a 533070i bk3: 8843a 519128i bk4: 8108a 570659i bk5: 8585a 534896i bk6: 7539a 609172i bk7: 7987a 600677i bk8: 8152a 546049i bk9: 8857a 531803i bk10: 8268a 557959i bk11: 8519a 539979i bk12: 8163a 556610i bk13: 8412a 541002i bk14: 7576a 594435i bk15: 7717a 582024i 

------------------------------------------------------------------------

Row_Buffer_Locality = 0.274486
Row_Buffer_Locality_read = 0.274565
Row_Buffer_Locality_write = 0.242331
Bank_Level_Parallism = 10.588159
Bank_Level_Parallism_Col = 2.353695
Bank_Level_Parallism_Ready = 1.079175
write_to_read_ratio_blp_rw_average = 0.065284
GrpLevelPara = 2.032072 

BW Util details:
bwutil = 0.382949 
total_CMD = 1388101 
util_bw = 531572 
Wasted_Col = 701644 
Wasted_Row = 35059 
Idle = 119826 

BW Util Bottlenecks: 
RCDc_limit = 1321740 
RCDWRc_limit = 1672 
[...]
Row_Buffer_Locality_read = 0.281558
Row_Buffer_Locality_write = 0.370183
Bank_Level_Parallism = 11.166267
Bank_Level_Parallism_Col = 2.235661
Bank_Level_Parallism_Ready = 1.082745
write_to_read_ratio_blp_rw_average = 0.023668
GrpLevelPara = 1.966686 

BW Util details:
bwutil = 0.387436 
total_CMD = 6851505 
util_bw = 2654520 
Wasted_Col = 3417416 
Wasted_Row = 144203 
Idle = 635366 

BW Util Bottlenecks: 
RCDc_limit = 6498464 
RCDWRc_limit = 3729 
WTRc_limit = 57086 
RTWc_limit = 255442 
CCDLc_limit = 723521 
rwq = 0 
CCDLc_limit_alone = 702294 
WTRc_limit_alone = 53456 
RTWc_limit_alone = 237845 

Commands details: 
total_CMD = 6851505 
n_nop = 5483028 
Read = 660245 
Write = 0 
L2_Alloc = 0 
L2_WB = 3385 
n_act = 474979 
n_pre = 474963 
n_ref = 0 
n_req = 661231 
total_req = 663630 

Dual Bus Interface Util: 
issued_total_row = 949942 
issued_total_col = 663630 
Row_Bus_Util =  0.138647 
CoL_Bus_Util = 0.096859 
Either_Row_CoL_Bus_Util = 0.199734 
Issued_on_Two_Bus_Simul_Util = 0.035772 
issued_two_Eff = 0.179101 
queue_avg = 34.242401 


dram_util_bins: 0 0 0 0 0 0 0 0 0 0
dram_eff_bins: 0 0 0 0 0 0 0 0 0 0
mrqq: max=64 avg=34.2424
Memory Partition 7: 
Cache L2_bank_014:
MSHR contents

Cache L2_bank_015:
MSHR contents

In Dram Latency Queue (total = 0): 
DRAM[7]: 16 bks, busW=2 BL=16 CL=24, tRRD=12 tCCD=4, tRCD=24 tRAS=55 tRP=24 tRC=78
n_cmd=6851505 n_nop=5489624 n_act=472616 n_pre=472600 n_ref_event=0 n_req=656840 n_rd=655875 n_rd_L2_A=0 n_write=0 n_wr_bk=3372 bw_util=0.3849
n_activity=6303697 dram_eff=0.4183
bk0: 41292a 2579521i bk1: 40919a 2580028i bk2: 43171a 2464604i bk3: 44189a 2452575i bk4: 40503a 2607462i bk5: 41054a 2611902i bk6: 39004a 2749105i bk7: 39026a 2761642i bk8: 42585a 2534412i bk9: 41484a 2595572i bk10: 41184a 2606740i bk11: 41520a 2562158i bk12: 41158a 2561865i bk13: 40757a 2594498i bk14: 40597a 2644470i bk15: 37432a 2791922i 

------------------------------------------------------------------------

Row_Buffer_Locality = 0.280485
Row_Buffer_Locality_read = 0.280390
Row_Buffer_Locality_write = 0.345078
Bank_Level_Parallism = 11.057332
Bank_Level_Parallism_Col = 2.225759
Bank_Level_Parallism_Ready = 1.082192
write_to_read_ratio_blp_rw_average = 0.022700
GrpLevelPara = 1.958621 

BW Util details:
bwutil = 0.384877 
total_CMD = 6851505 
util_bw = 2636988 
Wasted_Col = 3418906 
Wasted_Row = 152579 
Idle = 643032 

BW Util Bottlenecks: 
RCDc_limit = 6486657 
RCDWRc_limit = 3743 
WTRc_limit = 56366 
RTWc_limit = 241208 
CCDLc_limit = 714470 
rwq = 0 
CCDLc_limit_alone = 694302 
WTRc_limit_alone = 52872 
RTWc_limit_alone = 224534 

Commands details: 
total_CMD = 6851505 
n_nop = 5489624 
Read = 655875 
Write = 0 
L2_Alloc = 0 
L2_WB = 3372 
n_act = 472616 
n_pre = 472600 
n_ref = 0 
n_req = 656840 
total_req = 659247 

Dual Bus Interface Util: 
issued_total_row = 945216 
issued_total_col = 659247 
Row_Bus_Util =  0.137957 
CoL_Bus_Util = 0.096219 
Either_Row_CoL_Bus_Util = 0.198771 
Issued_on_Two_Bus_Simul_Util = 0.035406 
issued_two_Eff = 0.178123 
queue_avg = 33.496620 


dram_util_bins: 0 0 0 0 0 0 0 0 0 0
dram_eff_bins: 0 0 0 0 0 0 0 0 0 0
mrqq: max=64 avg=33.4966
Memory Partition 8: 
Cache L2_bank_016:
MSHR contents

Cache L2_bank_017:
MSHR contents

In Dram Latency Queue (total = 0): 
DRAM[8]: 16 bks, busW=2 BL=16 CL=24, tRRD=12 tCCD=4, tRCD=24 tRAS=55 tRP=24 tRC=78
n_cmd=6851505 n_nop=5474039 n_act=475265 n_pre=475249 n_ref_event=0 n_req=664677 n_rd=663715 n_rd_L2_A=0 n_write=0 n_wr_bk=3381 bw_util=0.3895
n_activity=6310655 dram_eff=0.4228
bk0: 42773a 2464031i bk1: 40722a 2553063i bk2: 44819a 2372546i bk3: 43905a 2471566i bk4: 42970a 2480902i bk5: 40420a 2604400i bk6: 38912a 2746172i bk7: 38542a 2774499i bk8: 43159a 2450126i bk9: 42022a 2574225i bk10: 42352a 2523813i bk11: 41148a 2615428i bk12: 42679a 2474678i bk13: 40287a 2629670i bk14: 39611a 2603364i bk15: 39394a 2720169i 

------------------------------------------------------------------------

Row_Buffer_Locality = 0.284984
Row_Buffer_Locality_read = 0.284889
Row_Buffer_Locality_write = 0.350312
Bank_Level_Parallism = 11.142947
Bank_Level_Parallism_Col = 2.239389
Bank_Level_Parallism_Ready = 1.084481
write_to_read_ratio_blp_rw_average = 0.023349
GrpLevelPara = 1.968370 

BW Util details:
bwutil = 0.389460 
total_CMD = 6851505 
util_bw = 2668384 
Wasted_Col = 3406902 
Wasted_Row = 143336 
Idle = 632883 

BW Util Bottlenecks: 
RCDc_limit = 6480479 
RCDWRc_limit = 3741 
WTRc_limit = 58129 
RTWc_limit = 250778 
CCDLc_limit = 724965 
rwq = 0 
CCDLc_limit_alone = 704079 
WTRc_limit_alone = 54507 
RTWc_limit_alone = 233514 

Commands details: 
total_CMD = 6851505 
n_nop = 5474039 
Read = 663715 
Write = 0 
L2_Alloc = 0 
L2_WB = 3381 
n_act = 475265 
n_pre = 475249 
n_ref = 0 
n_req = 664677 
total_req = 667096 

Dual Bus Interface Util: 
issued_total_row = 950514 
issued_total_col = 667096 
Row_Bus_Util =  0.138731 
CoL_Bus_Util = 0.097365 
Either_Row_CoL_Bus_Util = 0.201046 
Issued_on_Two_Bus_Simul_Util = 0.035050 
issued_two_Eff = 0.174338 
queue_avg = 34.498013 


dram_util_bins: 0 0 0 0 0 0 0 0 0 0
dram_eff_bins: 0 0 0 0 0 0 0 0 0 0
mrqq: max=64 avg=34.498
Memory Partition 9: 
Cache L2_bank_018:
MSHR contents

Cache L2_bank_019:
MSHR contents

In Dram Latency Queue (total = 0): 
DRAM[9]: 16 bks, busW=2 BL=16 CL=24, tRRD=12 tCCD=4, tRCD=24 tRAS=55 tRP=24 tRC=78
n_cmd=6851505 n_nop=5481315 n_act=474769 n_pre=474753 n_ref_event=0 n_req=664463 n_rd=663498 n_rd_L2_A=0 n_write=0 n_wr_bk=3390 bw_util=0.3893
n_activity=6306697 dram_eff=0.423
bk0: 42030a 2461749i bk1: 40356a 2554494i bk2: 45182a 2374977i bk3: 43377a 2424978i bk4: 42722a 2453748i bk5: 41830a 2512904i bk6: 39822a 2652654i bk7: 38016a 2756192i bk8: 43163a 2432021i bk9: 41560a 2490230i bk10: 42625a 2492740i bk11: 41114a 2594002i bk12: 42729a 2470058i bk13: 40957a 2522366i bk14: 39058a 2596920i bk15: 38957a 2659669i 

------------------------------------------------------------------------

Row_Buffer_Locality = 0.285500
Row_Buffer_Locality_read = 0.285368
Row_Buffer_Locality_write = 0.376166
Bank_Level_Parallism = 11.254758
Bank_Level_Parallism_Col = 2.251688
Bank_Level_Parallism_Ready = 1.083962
write_to_read_ratio_blp_rw_average = 0.025949
GrpLevelPara = 1.976624 

BW Util details:
bwutil = 0.389338 
total_CMD = 6851505 
util_bw = 2667552 
Wasted_Col = 3397581 
Wasted_Row = 146462 
Idle = 639910 

BW Util Bottlenecks: 
RCDc_limit = 6462912 
RCDWRc_limit = 3533 
WTRc_limit = 55326 
RTWc_limit = 279467 
CCDLc_limit = 731811 
rwq = 0 
CCDLc_limit_alone = 709162 
WTRc_limit_alone = 51774 
RTWc_limit_alone = 260370 

Commands details: 
total_CMD = 6851505 
n_nop = 5481315 
Read = 663498 
Write = 0 
L2_Alloc = 0 
L2_WB = 3390 
n_act = 474769 
n_pre = 474753 
n_ref = 0 
n_req = 664463 
total_req = 666888 

Dual Bus Interface Util: 
issued_total_row = 949522 
issued_total_col = 666888 
Row_Bus_Util =  0.138586 
CoL_Bus_Util = 0.097335 
Either_Row_CoL_Bus_Util = 0.199984 
Issued_on_Two_Bus_Simul_Util = 0.035937 
issued_two_Eff = 0.179698 
queue_avg = 35.269806 


dram_util_bins: 0 0 0 0 0 0 0 0 0 0
dram_eff_bins: 0 0 0 0 0 0 0 0 0 0
mrqq: max=64 avg=35.2698
Memory Partition 10: 
Cache L2_bank_020:
MSHR contents

Cache L2_bank_021:
MSHR contents

In Dram Latency Queue (total = 0): 
DRAM[10]: 16 bks, busW=2 BL=16 CL=24, tRRD=12 tCCD=4, tRCD=24 tRAS=55 tRP=24 tRC=78
n_cmd=6851505 n_nop=5480489 n_act=473926 n_pre=473910 n_ref_event=0 n_req=666113 n_rd=665145 n_rd_L2_A=0 n_write=0 n_wr_bk=3392 bw_util=0.3903
n_activity=6304150 dram_eff=0.4242
bk0: 41466a 2539010i bk1: 41954a 2470976i bk2: 44738a 2410729i bk3: 44749a 2359734i bk4: 41102a 2571114i bk5: 42525a 2522299i bk6: 38214a 2768872i bk7: 39374a 2715722i bk8: 42291a 2556406i bk9: 43334a 2446503i bk10: 42263a 2562649i bk11: 42903a 2535190i bk12: 40347a 2562504i bk13: 41791a 2518585i bk14: 38315a 2747122i bk15: 39779a 2619442i 

------------------------------------------------------------------------

Row_Buffer_Locality = 0.288535
Row_Buffer_Locality_read = 0.288444
Row_Buffer_Locality_write = 0.351240
Bank_Level_Parallism = 11.184185
Bank_Level_Parallism_Col = 2.235883
Bank_Level_Parallism_Ready = 1.082668
write_to_read_ratio_blp_rw_average = 0.021112
GrpLevelPara = 1.966203 

BW Util details:
bwutil = 0.390301 
total_CMD = 6851505 
util_bw = 2674148 
Wasted_Col = 3383542 
Wasted_Row = 152161 
Idle = 641654 

BW Util Bottlenecks: 
RCDc_limit = 6431418 
RCDWRc_limit = 3745 
WTRc_limit = 54260 
RTWc_limit = 227840 
CCDLc_limit = 732760 
rwq = 0 
CCDLc_limit_alone = 714283 
WTRc_limit_alone = 51068 
RTWc_limit_alone = 212555 

Commands details: 
total_CMD = 6851505 
n_nop = 5480489 
Read = 665145 
Write = 0 
L2_Alloc = 0 
L2_WB = 3392 
n_act = 473926 
n_pre = 473910 
n_ref = 0 
n_req = 666113 
total_req = 668537 

Dual Bus Interface Util: 
issued_total_row = 947836 
issued_total_col = 668537 
Row_Bus_Util =  0.138340 
CoL_Bus_Util = 0.097575 
Either_Row_CoL_Bus_Util = 0.200104 
Issued_on_Two_Bus_Simul_Util = 0.035811 
issued_two_Eff = 0.178960 
queue_avg = 34.938217 


dram_util_bins: 0 0 0 0 0 0 0 0 0 0
dram_eff_bins: 0 0 0 0 0 0 0 0 0 0
mrqq: max=64 avg=34.9382
Memory Partition 11: 
Cache L2_bank_022:
MSHR contents

Cache L2_bank_023:
MSHR contents

In Dram Latency Queue (total = 0): 
DRAM[11]: 16 bks, busW=2 BL=16 CL=24, tRRD=12 tCCD=4, tRCD=24 tRAS=55 tRP=24 tRC=78
n_cmd=6851505 n_nop=5489063 n_act=472510 n_pre=472494 n_ref_event=0 n_req=657213 n_rd=656264 n_rd_L2_A=0 n_write=0 n_wr_bk=3305 bw_util=0.3851
n_activity=6308232 dram_eff=0.4182
bk0: 39836a 2603683i bk1: 41996a 2516864i bk2: 43657a 2499301i bk3: 44654a 2427267i bk4: 40066a 2673044i bk5: 42532a 2529849i bk6: 37694a 2799119i bk7: 39056a 2738740i bk8: 40477a 2627796i bk9: 43156a 2499947i bk10: 40867a 2645918i bk11: 42245a 2572738i bk12: 39502a 2692854i bk13: 41655a 2555495i bk14: 38478a 2752248i bk15: 40393a 2624037i 

------------------------------------------------------------------------

Row_Buffer_Locality = 0.281055
Row_Buffer_Locality_read = 0.280937
Row_Buffer_Locality_write = 0.362487
Bank_Level_Parallism = 11.036703
Bank_Level_Parallism_Col = 2.228011
Bank_Level_Parallism_Ready = 1.082943
write_to_read_ratio_blp_rw_average = 0.023601
GrpLevelPara = 1.960687 

BW Util details:
bwutil = 0.385065 
total_CMD = 6851505 
util_bw = 2638276 
Wasted_Col = 3421501 
Wasted_Row = 154380 
Idle = 637348 

BW Util Bottlenecks: 
RCDc_limit = 6484446 
RCDWRc_limit = 3604 
WTRc_limit = 52656 
RTWc_limit = 251720 
CCDLc_limit = 715082 
rwq = 0 
CCDLc_limit_alone = 694521 
WTRc_limit_alone = 49351 
RTWc_limit_alone = 234464 

Commands details: 
total_CMD = 6851505 
n_nop = 5489063 
Read = 656264 
Write = 0 
L2_Alloc = 0 
L2_WB = 3305 
n_act = 472510 
n_pre = 472494 
n_ref = 0 
n_req = 657213 
total_req = 659569 

Dual Bus Interface Util: 
issued_total_row = 945004 
issued_total_col = 659569 
Row_Bus_Util =  0.137926 
CoL_Bus_Util = 0.096266 
Either_Row_CoL_Bus_Util = 0.198853 
Issued_on_Two_Bus_Simul_Util = 0.035340 
issued_two_Eff = 0.177718 
queue_avg = 33.732426 


dram_util_bins: 0 0 0 0 0 0 0 0 0 0
dram_eff_bins: 0 0 0 0 0 0 0 0 0 0
mrqq: max=64 avg=33.7324

========= L2 cache stats =========
L2_cache_bank[0]: Access = 927026, Miss = 321768, Miss_rate = 0.347, Pending_hits = 652, Reservation_fails = 21
L2_cache_bank[1]: Access = 918491, Miss = 329700, Miss_rate = 0.359, Pending_hits = 555, Reservation_fails = 14767
L2_cache_bank[2]: Access = 922547, Miss = 328274, Miss_rate = 0.356, Pending_hits = 562, Reservation_fails = 1575
L2_cache_bank[3]: Access = 924488, Miss = 325618, Miss_rate = 0.352, Pending_hits = 662, Reservation_fails = 9704
L2_cache_bank[4]: Access = 921972, Miss = 324255, Miss_rate = 0.352, Pending_hits = 584, Reservation_fails = 1379
L2_cache_bank[5]: Access = 923916, Miss = 326264, Miss_rate = 0.353, Pending_hits = 512, Reservation_fails = 438
L2_cache_bank[6]: Access = 918679, Miss = 319883, Miss_rate = 0.348, Pending_hits = 561, Reservation_fails = 2798
L2_cache_bank[7]: Access = 922410, Miss = 326182, Miss_rate = 0.354, Pending_hits = 465, Reservation_fails = 684
L2_cache_bank[8]: Access = 926721, Miss = 326208, Miss_rate = 0.352, Pending_hits = 680, Reservation_fails = 22006
L2_cache_bank[9]: Access = 919434, Miss = 321109, Miss_rate = 0.349, Pending_hits = 571, Reservation_fails = 6438
L2_cache_bank[10]: Access = 922880, Miss = 325611, Miss_rate = 0.353, Pending_hits = 526, Reservation_fails = 11900
L2_cache_bank[11]: Access = 921111, Miss = 322250, Miss_rate = 0.350, Pending_hits = 433, Reservation_fails = 287
L2_cache_bank[12]: Access = 925639, Miss = 330131, Miss_rate = 0.357, Pending_hits = 716, Reservation_fails = 6783
L2_cache_bank[13]: Access = 927629, Miss = 330197, Miss_rate = 0.356, Pending_hits = 598, Reservation_fails = 3016
L2_cache_bank[14]: Access = 924739, Miss = 329528, Miss_rate = 0.356, Pending_hits = 581, Reservation_fails = 10867
L2_cache_bank[15]: Access = 922125, Miss = 326432, Miss_rate = 0.354, Pending_hits = 698, Reservation_fails = 4122
L2_cache_bank[16]: Access = 931905, Miss = 337323, Miss_rate = 0.362, Pending_hits = 787, Reservation_fails = 62761
L2_cache_bank[17]: Access = 921519, Miss = 326484, Miss_rate = 0.354, Pending_hits = 607, Reservation_fails = 23091
L2_cache_bank[18]: Access = 927837, Miss = 337392, Miss_rate = 0.364, Pending_hits = 684, Reservation_fails = 38582
L2_cache_bank[19]: Access = 932197, Miss = 326207, Miss_rate = 0.350, Pending_hits = 532, Reservation_fails = 27177
L2_cache_bank[20]: Access = 928844, Miss = 328814, Miss_rate = 0.354, Pending_hits = 388, Reservation_fails = 771
L2_cache_bank[21]: Access = 931076, Miss = 336447, Miss_rate = 0.361, Pending_hits = 437, Reservation_fails = 13727
L2_cache_bank[22]: Access = 919478, Miss = 320622, Miss_rate = 0.349, Pending_hits = 423, Reservation_fails = 423
L2_cache_bank[23]: Access = 919407, Miss = 335722, Miss_rate = 0.365, Pending_hits = 679, Reservation_fails = 17519
L2_total_cache_accesses = 22182070
L2_total_cache_misses = 7862421
L2_total_cache_miss_rate = 0.3544
L2_total_cache_pending_hits = 13893
L2_total_cache_reservation_fails = 280836
L2_total_cache_breakdown:
	L2_cache_stats_breakdown[GLOBAL_ACC_R][HIT] = 14229340
	L2_cache_stats_breakdown[GLOBAL_ACC_R][HIT_RESERVED] = 13866
	L2_cache_stats_breakdown[GLOBAL_ACC_R][MISS] = 5733918
	L2_cache_stats_breakdown[GLOBAL_ACC_R][RESERVATION_FAIL] = 280836
	L2_cache_stats_breakdown[GLOBAL_ACC_R][SECTOR_MISS] = 2127461
	L2_cache_stats_breakdown[GLOBAL_ACC_R][MSHR_HIT] = 13867
	L2_cache_stats_breakdown[LOCAL_ACC_R][HIT] = 0
	L2_cache_stats_breakdown[LOCAL_ACC_R][HIT_RESERVED] = 0
	L2_cache_stats_breakdown[LOCAL_ACC_R][MISS] = 0
	L2_cache_stats_breakdown[LOCAL_ACC_R][RESERVATION_FAIL] = 0
	L2_cache_stats_breakdown[LOCAL_ACC_R][SECTOR_MISS] = 0
	L2_cache_stats_breakdown[LOCAL_ACC_R][MSHR_HIT] = 0
	L2_cache_stats_breakdown[CONST_ACC_R][HIT] = 0
	L2_cache_stats_breakdown[CONST_ACC_R][HIT_RESERVED] = 0
	L2_cache_stats_breakdown[CONST_ACC_R][MISS] = 0
	L2_cache_stats_breakdown[CONST_ACC_R][RESERVATION_FAIL] = 0
	L2_cache_stats_breakdown[CONST_ACC_R][SECTOR_MISS] = 0
	L2_cache_stats_breakdown[CONST_ACC_R][MSHR_HIT] = 0
	L2_cache_stats_breakdown[TEXTURE_ACC_R][HIT] = 0
	L2_cache_stats_breakdown[TEXTURE_ACC_R][HIT_RESERVED] = 0
	L2_cache_stats_breakdown[TEXTURE_ACC_R][MISS] = 0
	L2_cache_stats_breakdown[TEXTURE_ACC_R][RESERVATION_FAIL] = 0
	L2_cache_stats_breakdown[TEXTURE_ACC_R][SECTOR_MISS] = 0
	L2_cache_stats_breakdown[TEXTURE_ACC_R][MSHR_HIT] = 0
	L2_cache_stats_breakdown[GLOBAL_ACC_W][HIT] = 76416
	L2_cache_stats_breakdown[GLOBAL_ACC_W][HIT_RESERVED] = 27
	L2_cache_stats_breakdown[GLOBAL_ACC_W][MISS] = 576
	L2_cache_stats_breakdown[GLOBAL_ACC_W][RESERVATION_FAIL] = 0
	L2_cache_stats_breakdown[GLOBAL_ACC_W][SECTOR_MISS] = 466
	L2_cache_stats_breakdown[GLOBAL_ACC_W][MSHR_HIT] = 0
	L2_cache_stats_breakdown[LOCAL_ACC_W][HIT] = 0
	L2_cache_stats_breakdown[LOCAL_ACC_W][HIT_RESERVED] = 0
	L2_cache_stats_breakdown[LOCAL_ACC_W][MISS] = 0
	L2_cache_stats_breakdown[LOCAL_ACC_W][RESERVATION_FAIL] = 0
	L2_cache_stats_breakdown[LOCAL_ACC_W][SECTOR_MISS] = 0
	L2_cache_stats_breakdown[LOCAL_ACC_W][MSHR_HIT] = 0
	L2_cache_stats_breakdown[L1_WRBK_ACC][HIT] = 0
	L2_cache_stats_breakdown[L1_WRBK_ACC][HIT_RESERVED] = 0
	L2_cache_stats_breakdown[L1_WRBK_ACC][MISS] = 0
	L2_cache_stats_breakdown[L1_WRBK_ACC][RESERVATION_FAIL] = 0
	L2_cache_stats_breakdown[L1_WRBK_ACC][SECTOR_MISS] = 0
	L2_cache_stats_breakdown[L1_WRBK_ACC][MSHR_HIT] = 0
	L2_cache_stats_breakdown[L2_WRBK_ACC][HIT] = 0
	L2_cache_stats_breakdown[L2_WRBK_ACC][HIT_RESERVED] = 0
	L2_cache_stats_breakdown[L2_WRBK_ACC][MISS] = 0
	L2_cache_stats_breakdown[L2_WRBK_ACC][RESERVATION_FAIL] = 0
	L2_cache_stats_breakdown[L2_WRBK_ACC][SECTOR_MISS] = 0
	L2_cache_stats_breakdown[L2_WRBK_ACC][MSHR_HIT] = 0
	L2_cache_stats_breakdown[INST_ACC_R][HIT] = 0
	L2_cache_stats_breakdown[INST_ACC_R][HIT_RESERVED] = 0
	L2_cache_stats_breakdown[INST_ACC_R][MISS] = 0
	L2_cache_stats_breakdown[INST_ACC_R][RESERVATION_FAIL] = 0
	L2_cache_stats_breakdown[INST_ACC_R][SECTOR_MISS] = 0
	L2_cache_stats_breakdown[INST_ACC_R][MSHR_HIT] = 0
	L2_cache_stats_breakdown[L1_WR_ALLOC_R][HIT] = 0
	L2_cache_stats_breakdown[L1_WR_ALLOC_R][HIT_RESERVED] = 0
	L2_cache_stats_breakdown[L1_WR_ALLOC_R][MISS] = 0
	L2_cache_stats_breakdown[L1_WR_ALLOC_R][RESERVATION_FAIL] = 0
	L2_cache_stats_breakdown[L1_WR_ALLOC_R][SECTOR_MISS] = 0
	L2_cache_stats_breakdown[L1_WR_ALLOC_R][MSHR_HIT] = 0
	L2_cache_stats_breakdown[L2_WR_ALLOC_R][HIT] = 0
	L2_cache_stats_breakdown[L2_WR_ALLOC_R][HIT_RESERVED] = 0
	L2_cache_stats_breakdown[L2_WR_ALLOC_R][MISS] = 0
	L2_cache_stats_breakdown[L2_WR_ALLOC_R][RESERVATION_FAIL] = 0
	L2_cache_stats_breakdown[L2_WR_ALLOC_R][SECTOR_MISS] = 0
	L2_cache_stats_breakdown[L2_WR_ALLOC_R][MSHR_HIT] = 0
	L2_cache_stats_breakdown[GLOBAL_ACC_R][TOTAL_ACCESS] = 22104585
	L2_cache_stats_breakdown[GLOBAL_ACC_W][TOTAL_ACCESS] = 77485
L2_total_cache_reservation_fail_breakdown:
	L2_cache_stats_fail_breakdown[GLOBAL_ACC_R][LINE_ALLOC_FAIL] = 234
	L2_cache_stats_fail_breakdown[GLOBAL_ACC_R][MSHR_ENRTY_FAIL] = 265839
	L2_cache_stats_fail_breakdown[GLOBAL_ACC_R][MSHR_MERGE_ENRTY_FAIL] = 14763
L2_cache_data_port_util = 0.223
L2_cache_fill_port_util = 0.123

icnt_total_pkts_mem_to_simt=22182070
icnt_total_pkts_simt_to_mem=22182070
LD_mem_lat_dist  0 0 0 0 0 0 0 0 0 0 0 0 0 0 0 0 0 0 0 0 0 0 0 0 0 0 0
ST_mem_lat_dist  0 0 0 0 0 0 0 0 0 0 0 0 0 0 0 0 0 0 0 0 0 0 0 0 0 0 0
----------------------------Interconnect-DETAILS--------------------------------
Req_Network_injected_packets_num = 22182070
Req_Network_cycles = 2671714
Req_Network_injected_packets_per_cycle =       8.3026 
Req_Network_conflicts_per_cycle =       9.4541
Req_Network_conflicts_per_cycle_util =      10.2187
Req_Bank_Level_Parallism =       8.9740
Req_Network_in_buffer_full_per_cycle =       0.0000
Req_Network_in_buffer_avg_util =      27.9234
Req_Network_out_buffer_full_per_cycle =       0.2321
Req_Network_out_buffer_avg_util =      21.9590

Reply_Network_injected_packets_num = 22182070
Reply_Network_cycles = 2671714
Reply_Network_injected_packets_per_cycle =        8.3026
Reply_Network_conflicts_per_cycle =        5.3803
Reply_Network_conflicts_per_cycle_util =       5.8244
Reply_Bank_Level_Parallism =       8.9879
Reply_Network_in_buffer_full_per_cycle =       0.0000
Reply_Network_in_buffer_avg_util =       6.0667
Reply_Network_out_buffer_full_per_cycle =       0.0000
Reply_Network_out_buffer_avg_util =       0.2768
----------------------------END-of-Interconnect-DETAILS-------------------------


gpgpu_simulation_time = 0 days, 5 hrs, 44 min, 58 sec (20698 sec)
gpgpu_simulation_rate = 12567 (inst/sec)
gpgpu_simulation_rate = 129 (cycle/sec)
gpgpu_silicon_slowdown = 10581395x
GPGPU-Sim: synchronize waiting for inactive GPU simulation
GPGPU-Sim API: Stream Manager State
GPGPU-Sim: detected inactive GPU simulation thread
	iterations = 5.
	runtime [cuda_base] = 20691377.457000 ms.
Verifying...
	runtime [serial] = 63.547000 ms.
Correct
GPGPU-Sim: *** exit detected ***
