

        *** GPGPU-Sim Simulator Version 4.2.0  [build gpgpu-sim_git-commit-5e9d31b8132651796656877ecb58fde27177ba7a_modified_315.0] ***


GPGPU-Sim PTX: simulation mode 0 (can change with PTX_SIM_MODE_FUNC environment variable:
               1=functional simulation only, 0=detailed performance simulator)
GPGPU-Sim PTX: overriding embedded ptx with ptx file (PTX_SIM_USE_PTX_FILE is set)
GPGPU-Sim: Configuration options:

-save_embedded_ptx                      0 # saves ptx files embedded in binary as <n>.ptx
-keep                                   0 # keep intermediate files created by GPGPU-Sim when interfacing with external programs
-gpgpu_ptx_save_converted_ptxplus                    0 # Saved converted ptxplus to a file
-gpgpu_occupancy_sm_number                   75 # The SM number to pass to ptxas when getting register usage for computing GPU occupancy. This parameter is required in the config.
-ptx_opcode_latency_int           4,4,4,4,21 # Opcode latencies for integers <ADD,MAX,MUL,MAD,DIV,SHFL>Default 1,1,19,25,145,32
-ptx_opcode_latency_fp           4,4,4,4,39 # Opcode latencies for single precision floating points <ADD,MAX,MUL,MAD,DIV>Default 1,1,1,1,30
-ptx_opcode_latency_dp      64,64,64,64,330 # Opcode latencies for double precision floating points <ADD,MAX,MUL,MAD,DIV>Default 8,8,8,8,335
-ptx_opcode_latency_sfu                   21 # Opcode latencies for SFU instructionsDefault 8
-ptx_opcode_latency_tesnor                   64 # Opcode latencies for Tensor instructionsDefault 64
-ptx_opcode_initiation_int            2,2,2,2,2 # Opcode initiation intervals for integers <ADD,MAX,MUL,MAD,DIV,SHFL>Default 1,1,4,4,32,4
-ptx_opcode_initiation_fp            2,2,2,2,4 # Opcode initiation intervals for single precision floating points <ADD,MAX,MUL,MAD,DIV>Default 1,1,1,1,5
-ptx_opcode_initiation_dp      64,64,64,64,130 # Opcode initiation intervals for double precision floating points <ADD,MAX,MUL,MAD,DIV>Default 8,8,8,8,130
-ptx_opcode_initiation_sfu                    8 # Opcode initiation intervals for sfu instructionsDefault 8
-ptx_opcode_initiation_tensor                   64 # Opcode initiation intervals for tensor instructionsDefault 64
-cdp_latency         7200,8000,100,12000,1600 # CDP API latency <cudaStreamCreateWithFlags, cudaGetParameterBufferV2_init_perWarp, cudaGetParameterBufferV2_perKernel, cudaLaunchDeviceV2_init_perWarp, cudaLaunchDevicV2_perKernel>Default 7200,8000,100,12000,1600
-network_mode                           2 # Interconnection network mode
-inter_config_file                   mesh # Interconnection network config file
-icnt_in_buffer_limit                  512 # in_buffer_limit
-icnt_out_buffer_limit                  512 # out_buffer_limit
-icnt_subnets                           2 # subnets
-icnt_arbiter_algo                      1 # arbiter_algo
-icnt_verbose                           0 # inct_verbose
-icnt_grant_cycles                      1 # grant_cycles
-gpgpu_ptx_use_cuobjdump                    1 # Use cuobjdump to extract ptx and sass from binaries
-gpgpu_experimental_lib_support                    0 # Try to extract code from cuda libraries [Broken because of unknown cudaGetExportTable]
-checkpoint_option                      0 #  checkpointing flag (0 = no checkpoint)
-checkpoint_kernel                      1 #  checkpointing during execution of which kernel (1- 1st kernel)
-checkpoint_CTA                         0 #  checkpointing after # of CTA (< less than total CTA)
-resume_option                          0 #  resume flag (0 = no resume)
-resume_kernel                          0 #  Resume from which kernel (1= 1st kernel)
-resume_CTA                             0 #  resume from which CTA 
-checkpoint_CTA_t                       0 #  resume from which CTA 
-checkpoint_insn_Y                      0 #  resume from which CTA 
-gpgpu_ptx_convert_to_ptxplus                    0 # Convert SASS (native ISA) to ptxplus and run ptxplus
-gpgpu_ptx_force_max_capability                   75 # Force maximum compute capability
-gpgpu_ptx_inst_debug_to_file                    0 # Dump executed instructions' debug information to file
-gpgpu_ptx_inst_debug_file       inst_debug.txt # Executed instructions' debug output file
-gpgpu_ptx_inst_debug_thread_uid                    1 # Thread UID for executed instructions' debug output
-gpgpu_simd_model                       1 # 1 = post-dominator
-gpgpu_shader_core_pipeline              1024:32 # shader core pipeline config, i.e., {<nthread>:<warpsize>}
-gpgpu_tex_cache:l1  N:4:128:256,L:R:m:N:L,T:512:8,128:2 # per-shader L1 texture cache  (READ-ONLY) config  {<nsets>:<bsize>:<assoc>,<rep>:<wr>:<alloc>:<wr_alloc>,<mshr>:<N>:<merge>,<mq>:<rf>}
-gpgpu_const_cache:l1 N:128:64:8,L:R:f:N:L,S:2:64,4 # per-shader L1 constant memory cache  (READ-ONLY) config  {<nsets>:<bsize>:<assoc>,<rep>:<wr>:<alloc>:<wr_alloc>,<mshr>:<N>:<merge>,<mq>} 
-gpgpu_cache:il1     N:64:128:16,L:R:f:N:L,S:2:48,4 # shader L1 instruction cache config  {<nsets>:<bsize>:<assoc>,<rep>:<wr>:<alloc>:<wr_alloc>,<mshr>:<N>:<merge>,<mq>} 
-gpgpu_cache:dl1     S:4:128:64,L:T:m:L:L,A:256:32,16:0,32 # per-shader L1 data cache config  {<nsets>:<bsize>:<assoc>,<rep>:<wr>:<alloc>:<wr_alloc>,<mshr>:<N>:<merge>,<mq> | none}
-gpgpu_l1_cache_write_ratio                   25 # L1D write ratio
-gpgpu_l1_banks                         4 # The number of L1 cache banks
-gpgpu_l1_banks_byte_interleaving                   32 # l1 banks byte interleaving granularity
-gpgpu_l1_banks_hashing_function                    0 # l1 banks hashing function
-gpgpu_l1_latency                      32 # L1 Hit Latency
-gpgpu_smem_latency                    30 # smem Latency
-gpgpu_cache:dl1PrefL1                 none # per-shader L1 data cache config  {<nsets>:<bsize>:<assoc>,<rep>:<wr>:<alloc>:<wr_alloc>,<mshr>:<N>:<merge>,<mq> | none}
-gpgpu_cache:dl1PrefShared                 none # per-shader L1 data cache config  {<nsets>:<bsize>:<assoc>,<rep>:<wr>:<alloc>:<wr_alloc>,<mshr>:<N>:<merge>,<mq> | none}
-gpgpu_gmem_skip_L1D                    0 # global memory access skip L1D cache (implements -Xptxas -dlcm=cg, default=no skip)
-gpgpu_perfect_mem                      0 # enable perfect memory mode (no cache miss)
-n_regfile_gating_group                    4 # group of lanes that should be read/written together)
-gpgpu_clock_gated_reg_file                    0 # enable clock gated reg file for power calculations
-gpgpu_clock_gated_lanes                    0 # enable clock gated lanes for power calculations
-gpgpu_shader_registers                65536 # Number of registers per shader core. Limits number of concurrent CTAs. (default 8192)
-gpgpu_registers_per_block                65536 # Maximum number of registers per CTA. (default 8192)
-gpgpu_ignore_resources_limitation                    0 # gpgpu_ignore_resources_limitation (default 0)
-gpgpu_shader_cta                      16 # Maximum number of concurrent CTAs in shader (default 32)
-gpgpu_num_cta_barriers                   16 # Maximum number of named barriers per CTA (default 16)
-gpgpu_n_clusters                      30 # number of processing clusters
-gpgpu_n_cores_per_cluster                    1 # number of simd cores per cluster
-gpgpu_n_cluster_ejection_buffer_size                   32 # number of packets in ejection buffer
-gpgpu_n_ldst_response_buffer_size                    2 # number of response packets in ld/st unit ejection buffer
-gpgpu_shmem_per_block                49152 # Size of shared memory per thread block or CTA (default 48kB)
-gpgpu_shmem_size                   65536 # Size of shared memory per shader core (default 16kB)
-gpgpu_shmem_option                 32,64 # Option list of shared memory sizes
-gpgpu_unified_l1d_size                   96 # Size of unified data cache(L1D + shared memory) in KB
-gpgpu_adaptive_cache_config                    1 # adaptive_cache_config
-gpgpu_shmem_sizeDefault                65536 # Size of shared memory per shader core (default 16kB)
-gpgpu_shmem_size_PrefL1                16384 # Size of shared memory per shader core (default 16kB)
-gpgpu_shmem_size_PrefShared                16384 # Size of shared memory per shader core (default 16kB)
-gpgpu_shmem_num_banks                   32 # Number of banks in the shared memory in each shader core (default 16)
-gpgpu_shmem_limited_broadcast                    0 # Limit shared memory to do one broadcast per cycle (default on)
-gpgpu_shmem_warp_parts                    1 # Number of portions a warp is divided into for shared memory bank conflict check 
-gpgpu_mem_unit_ports                    1 # The number of memory transactions allowed per core cycle
-gpgpu_shmem_warp_parts                    1 # Number of portions a warp is divided into for shared memory bank conflict check 
-gpgpu_warpdistro_shader                   -1 # Specify which shader core to collect the warp size distribution from
-gpgpu_warp_issue_shader                    0 # Specify which shader core to collect the warp issue distribution from
-gpgpu_local_mem_map                    1 # Mapping from local memory space address to simulated GPU physical address space (default = enabled)
-gpgpu_num_reg_banks                    8 # Number of register banks (default = 8)
-gpgpu_reg_bank_use_warp_id                    0 # Use warp ID in mapping registers to banks (default = off)
-gpgpu_sub_core_model                    1 # Sub Core Volta/Pascal model (default = off)
-gpgpu_enable_specialized_operand_collector                    0 # enable_specialized_operand_collector
-gpgpu_operand_collector_num_units_sp                    4 # number of collector units (default = 4)
-gpgpu_operand_collector_num_units_dp                    0 # number of collector units (default = 0)
-gpgpu_operand_collector_num_units_sfu                    4 # number of collector units (default = 4)
-gpgpu_operand_collector_num_units_int                    0 # number of collector units (default = 0)
-gpgpu_operand_collector_num_units_tensor_core                    4 # number of collector units (default = 4)
-gpgpu_operand_collector_num_units_mem                    2 # number of collector units (default = 2)
-gpgpu_operand_collector_num_units_gen                    8 # number of collector units (default = 0)
-gpgpu_operand_collector_num_in_ports_sp                    1 # number of collector unit in ports (default = 1)
-gpgpu_operand_collector_num_in_ports_dp                    0 # number of collector unit in ports (default = 0)
-gpgpu_operand_collector_num_in_ports_sfu                    1 # number of collector unit in ports (default = 1)
-gpgpu_operand_collector_num_in_ports_int                    0 # number of collector unit in ports (default = 0)
-gpgpu_operand_collector_num_in_ports_tensor_core                    1 # number of collector unit in ports (default = 1)
-gpgpu_operand_collector_num_in_ports_mem                    1 # number of collector unit in ports (default = 1)
-gpgpu_operand_collector_num_in_ports_gen                    8 # number of collector unit in ports (default = 0)
-gpgpu_operand_collector_num_out_ports_sp                    1 # number of collector unit in ports (default = 1)
-gpgpu_operand_collector_num_out_ports_dp                    0 # number of collector unit in ports (default = 0)
-gpgpu_operand_collector_num_out_ports_sfu                    1 # number of collector unit in ports (default = 1)
-gpgpu_operand_collector_num_out_ports_int                    0 # number of collector unit in ports (default = 0)
-gpgpu_operand_collector_num_out_ports_tensor_core                    1 # number of collector unit in ports (default = 1)
-gpgpu_operand_collector_num_out_ports_mem                    1 # number of collector unit in ports (default = 1)
-gpgpu_operand_collector_num_out_ports_gen                    8 # number of collector unit in ports (default = 0)
-gpgpu_coalesce_arch                   75 # Coalescing arch (GT200 = 13, Fermi = 20)
-gpgpu_num_sched_per_core                    4 # Number of warp schedulers per core
-gpgpu_max_insn_issue_per_warp                    1 # Max number of instructions that can be issued per warp in one cycle by scheduler (either 1 or 2)
-gpgpu_dual_issue_diff_exec_units                    1 # should dual issue use two different execution unit resources (Default = 1)
-gpgpu_simt_core_sim_order                    1 # Select the simulation order of cores in a cluster (0=Fix, 1=Round-Robin)
-gpgpu_pipeline_widths 4,4,4,4,4,4,4,4,4,4,8,4,4 # Pipeline widths ID_OC_SP,ID_OC_DP,ID_OC_INT,ID_OC_SFU,ID_OC_MEM,OC_EX_SP,OC_EX_DP,OC_EX_INT,OC_EX_SFU,OC_EX_MEM,EX_WB,ID_OC_TENSOR_CORE,OC_EX_TENSOR_CORE
-gpgpu_tensor_core_avail                    1 # Tensor Core Available (default=0)
-gpgpu_num_sp_units                     4 # Number of SP units (default=1)
-gpgpu_num_dp_units                     4 # Number of DP units (default=0)
-gpgpu_num_int_units                    4 # Number of INT units (default=0)
-gpgpu_num_sfu_units                    4 # Number of SF units (default=1)
-gpgpu_num_tensor_core_units                    4 # Number of tensor_core units (default=1)
-gpgpu_num_mem_units                    1 # Number if ldst units (default=1) WARNING: not hooked up to anything
-gpgpu_scheduler                      lrr # Scheduler configuration: < lrr | gto | two_level_active > If two_level_active:<num_active_warps>:<inner_prioritization>:<outer_prioritization>For complete list of prioritization values see shader.h enum scheduler_prioritization_typeDefault: gto
-gpgpu_concurrent_kernel_sm                    0 # Support concurrent kernels on a SM (default = disabled)
-gpgpu_perfect_inst_const_cache                    1 # perfect inst and const cache mode, so all inst and const hits in the cache(default = disabled)
-gpgpu_inst_fetch_throughput                    4 # the number of fetched intruction per warp each cycle
-gpgpu_reg_file_port_throughput                    2 # the number ports of the register file
-specialized_unit_1         0,4,4,4,4,BRA # specialized unit config {<enabled>,<num_units>:<latency>:<initiation>,<ID_OC_SPEC>:<OC_EX_SPEC>,<NAME>}
-specialized_unit_2         0,4,4,4,4,BRA # specialized unit config {<enabled>,<num_units>:<latency>:<initiation>,<ID_OC_SPEC>:<OC_EX_SPEC>,<NAME>}
-specialized_unit_3         0,4,4,4,4,BRA # specialized unit config {<enabled>,<num_units>:<latency>:<initiation>,<ID_OC_SPEC>:<OC_EX_SPEC>,<NAME>}
-specialized_unit_4         0,4,4,4,4,BRA # specialized unit config {<enabled>,<num_units>:<latency>:<initiation>,<ID_OC_SPEC>:<OC_EX_SPEC>,<NAME>}
-specialized_unit_5         0,4,4,4,4,BRA # specialized unit config {<enabled>,<num_units>:<latency>:<initiation>,<ID_OC_SPEC>:<OC_EX_SPEC>,<NAME>}
-specialized_unit_6         0,4,4,4,4,BRA # specialized unit config {<enabled>,<num_units>:<latency>:<initiation>,<ID_OC_SPEC>:<OC_EX_SPEC>,<NAME>}
-specialized_unit_7         0,4,4,4,4,BRA # specialized unit config {<enabled>,<num_units>:<latency>:<initiation>,<ID_OC_SPEC>:<OC_EX_SPEC>,<NAME>}
-specialized_unit_8         0,4,4,4,4,BRA # specialized unit config {<enabled>,<num_units>:<latency>:<initiation>,<ID_OC_SPEC>:<OC_EX_SPEC>,<NAME>}
-gpgpu_perf_sim_memcpy                    1 # Fill the L2 cache on memcpy
-gpgpu_simple_dram_model                    0 # simple_dram_model with fixed latency and BW
-gpgpu_dram_scheduler                    1 # 0 = fifo, 1 = FR-FCFS (defaul)
-gpgpu_dram_partition_queues          64:64:64:64 # i2$:$2d:d2$:$2i
-l2_ideal                               0 # Use a ideal L2 cache that always hit
-gpgpu_cache:dl2     S:64:128:16,L:B:m:L:P,A:192:4,32:0,32 # unified banked L2 data cache config  {<nsets>:<bsize>:<assoc>,<rep>:<wr>:<alloc>:<wr_alloc>,<mshr>:<N>:<merge>,<mq>}
-gpgpu_cache:dl2_texture_only                    0 # L2 cache used for texture only
-gpgpu_n_mem                           12 # number of memory modules (e.g. memory controllers) in gpu
-gpgpu_n_sub_partition_per_mchannel                    2 # number of memory subpartition in each memory module
-gpgpu_n_mem_per_ctrlr                    1 # number of memory chips per memory controller
-gpgpu_memlatency_stat                   14 # track and display latency statistics 0x2 enables MC, 0x4 enables queue logs
-gpgpu_frfcfs_dram_sched_queue_size                   64 # 0 = unlimited (default); # entries per chip
-gpgpu_dram_return_queue_size                  192 # 0 = unlimited (default); # entries per chip
-gpgpu_dram_buswidth                    2 # default = 4 bytes (8 bytes per cycle at DDR)
-gpgpu_dram_burst_length                   16 # Burst length of each DRAM request (default = 4 data bus cycle)
-dram_data_command_freq_ratio                    4 # Frequency ratio between DRAM data bus and command bus (default = 2 times, i.e. DDR)
-gpgpu_dram_timing_opt nbk=16:CCD=4:RRD=12:RCD=24:RAS=55:RP=24:RC=78:CL=24:WL=8:CDLR=10:WR=24:nbkgrp=4:CCDL=6:RTPL=4 # DRAM timing parameters = {nbk:tCCD:tRRD:tRCD:tRAS:tRP:tRC:CL:WL:tCDLR:tWR:nbkgrp:tCCDL:tRTPL}
-gpgpu_l2_rop_latency                  194 # ROP queue latency (default 85)
-dram_latency                          96 # DRAM latency (default 30)
-dram_dual_bus_interface                    0 # dual_bus_interface (default = 0) 
-dram_bnk_indexing_policy                    0 # dram_bnk_indexing_policy (0 = normal indexing, 1 = Xoring with the higher bits) (Default = 0)
-dram_bnkgrp_indexing_policy                    1 # dram_bnkgrp_indexing_policy (0 = take higher bits, 1 = take lower bits) (Default = 0)
-dram_seperate_write_queue_enable                    0 # Seperate_Write_Queue_Enable
-dram_write_queue_size             32:28:16 # Write_Queue_Size
-dram_elimnate_rw_turnaround                    0 # elimnate_rw_turnaround i.e set tWTR and tRTW = 0
-icnt_flit_size                        40 # icnt_flit_size
-icnt_flit_size                        40 # icnt_flit_size
-mem_profiler                           0 # memory access runtime profiling (0 = not enabled)
-gpgpu_mem_addr_mapping dramid@8;00000000.00000000.00000000.00000000.0000RRRR.RRRRRRRR.RBBBCCCC.BCCSSSSS # mapping memory address to dram model {dramid@<start bit>;<memory address map>}
-gpgpu_mem_addr_test                    0 # run sweep test to check address mapping for aliased address
-gpgpu_mem_address_mask                    1 # 0 = old addressing mask, 1 = new addressing mask, 2 = new add. mask + flipped bank sel and chip sel bits
-gpgpu_memory_partition_indexing                    0 # 0 = no indexing, 1 = bitwise xoring, 2 = IPoly, 3 = custom indexing
-accelwattch_xml_file accelwattch_sass_sim.xml # AccelWattch XML file
-power_simulation_enabled                    1 # Turn on power simulator (1=On, 0=Off)
-power_per_cycle_dump                    1 # Dump detailed power output each cycle
-hw_perf_file_name            hw_perf.csv # Hardware Performance Statistics file
-hw_perf_bench_name    hw_perf_bench_name # Kernel Name in Hardware Performance Statistics file
-power_simulation_mode                    0 # Switch performance counter input for power simulation (0=Sim, 1=HW, 2=HW-Sim Hybrid)
-dvfs_enabled                           1 # Turn on DVFS for power model
-aggregate_power_stats                    0 # Accumulate power across all kernels
-accelwattch_hybrid_perfsim_L1_RH                    0 # Get L1 Read Hits for Accelwattch-Hybrid from Accel-Sim
-accelwattch_hybrid_perfsim_L1_RM                    0 # Get L1 Read Misses for Accelwattch-Hybrid from Accel-Sim
-accelwattch_hybrid_perfsim_L1_WH                    0 # Get L1 Write Hits for Accelwattch-Hybrid from Accel-Sim
-accelwattch_hybrid_perfsim_L1_WM                    0 # Get L1 Write Misses for Accelwattch-Hybrid from Accel-Sim
-accelwattch_hybrid_perfsim_L2_RH                    0 # Get L2 Read Hits for Accelwattch-Hybrid from Accel-Sim
-accelwattch_hybrid_perfsim_L2_RM                    0 # Get L2 Read Misses for Accelwattch-Hybrid from Accel-Sim
-accelwattch_hybrid_perfsim_L2_WH                    0 # Get L2 Write Hits for Accelwattch-Hybrid from Accel-Sim
-accelwattch_hybrid_perfsim_L2_WM                    0 # Get L2 Write Misses for Accelwattch-Hybrid from Accel-Sim
-accelwattch_hybrid_perfsim_CC_ACC                    0 # Get Constant Cache Acesses for Accelwattch-Hybrid from Accel-Sim
-accelwattch_hybrid_perfsim_SHARED_ACC                    0 # Get Shared Memory Acesses for Accelwattch-Hybrid from Accel-Sim
-accelwattch_hybrid_perfsim_DRAM_RD                    0 # Get DRAM Reads for Accelwattch-Hybrid from Accel-Sim
-accelwattch_hybrid_perfsim_DRAM_WR                    0 # Get DRAM Writes for Accelwattch-Hybrid from Accel-Sim
-accelwattch_hybrid_perfsim_NOC                    0 # Get Interconnect Acesses for Accelwattch-Hybrid from Accel-Sim
-accelwattch_hybrid_perfsim_PIPE_DUTY                    0 # Get Pipeline Duty Cycle Acesses for Accelwattch-Hybrid from Accel-Sim
-accelwattch_hybrid_perfsim_NUM_SM_IDLE                    0 # Get Number of Idle SMs for Accelwattch-Hybrid from Accel-Sim
-accelwattch_hybrid_perfsim_CYCLES                    0 # Get Executed Cycles for Accelwattch-Hybrid from Accel-Sim
-accelwattch_hybrid_perfsim_VOLTAGE                    0 # Get Chip Voltage for Accelwattch-Hybrid from Accel-Sim
-power_trace_enabled                    0 # produce a file for the power trace (1=On, 0=Off)
-power_trace_zlevel                     0 # Compression level of the power trace output log (0=no comp, 9=highest)
-steady_power_levels_enabled                    0 # produce a file for the steady power levels (1=On, 0=Off)
-steady_state_definition                  8:4 # allowed deviation:number of samples
-gpgpu_max_cycle                        0 # terminates gpu simulation early (0 = no limit)
-gpgpu_max_insn                         0 # terminates gpu simulation early (0 = no limit)
-gpgpu_max_cta                          0 # terminates gpu simulation early (0 = no limit)
-gpgpu_max_completed_cta                    0 # terminates gpu simulation early (0 = no limit)
-gpgpu_runtime_stat                  1000 # display runtime statistics such as dram utilization {<freq>:<flag>}
-liveness_message_freq                    1 # Minimum number of seconds between simulation liveness messages (0 = always print)
-gpgpu_compute_capability_major                    7 # Major compute capability version number
-gpgpu_compute_capability_minor                    5 # Minor compute capability version number
-gpgpu_flush_l1_cache                    1 # Flush L1 cache at the end of each kernel call
-gpgpu_flush_l2_cache                    0 # Flush L2 cache at the end of each kernel call
-gpgpu_deadlock_detect                    1 # Stop the simulation at deadlock (1=on (default), 0=off)
-gpgpu_ptx_instruction_classification                    0 # if enabled will classify ptx instruction types per kernel (Max 255 kernels now)
-gpgpu_ptx_sim_mode                     0 # Select between Performance (default) or Functional simulation (1)
-gpgpu_clock_domains 1365:1365:1365:3500.5 # Clock Domain Frequencies in MhZ {<Core Clock>:<ICNT Clock>:<L2 Clock>:<DRAM Clock>}
-gpgpu_max_concurrent_kernel                  128 # maximum kernels that can run concurrently on GPU, set this value according to max resident grids for your compute capability
-gpgpu_cflog_interval                    0 # Interval between each snapshot in control flow logger
-visualizer_enabled                     0 # Turn on visualizer output (1=On, 0=Off)
-visualizer_outputfile                 NULL # Specifies the output log file for visualizer
-visualizer_zlevel                      6 # Compression level of the visualizer output log (0=no comp, 9=highest)
-gpgpu_stack_size_limit                 1024 # GPU thread stack size
-gpgpu_heap_size_limit              8388608 # GPU malloc heap size 
-gpgpu_runtime_sync_depth_limit                    2 # GPU device runtime synchronize depth
-gpgpu_runtime_pending_launch_count_limit                 2048 # GPU device runtime pending launch count
-trace_enabled                          0 # Turn on traces
-trace_components                    none # comma seperated list of traces to enable. Complete list found in trace_streams.tup. Default none
-trace_sampling_core                    0 # The core which is printed using CORE_DPRINTF. Default 0
-trace_sampling_memory_partition                   -1 # The memory partition which is printed using MEMPART_DPRINTF. Default -1 (i.e. all)
-enable_ptx_file_line_stats                    1 # Turn on PTX source line statistic profiling. (1 = On)
-ptx_line_stats_filename gpgpu_inst_stats.txt # Output file for PTX source line statistics.
-gpgpu_kernel_launch_latency                 5000 # Kernel launch latency in cycles. Default: 0
-gpgpu_cdp_enabled                      0 # Turn on CDP
-gpgpu_TB_launch_latency                    0 # thread block launch latency in cycles. Default: 0
-mem_runtime_stat                     100 # memory access runtime profiling sampling941b81fc23f2052087d1d5a6fb26e9d9  /home/pars/Documents/sim_6/bc_linear_base
Extracting PTX file and ptxas options    1: bc_linear_base.1.sm_75.ptx -arch=sm_75
 freq
-L1D_metrics                            0 # memory access runtime profiling for L1 data cache
-IPC_per_prof_interval                    0 # IPC per profiling interval
-instruction_monitor                    0 # Instruction monitor
-noncoal_metrics                        0 # memory access runtime profiling for shared memory
-L2_metrics                             0 # memory access runtime profiling for L2 cache
-DRAM_metrics                           0 # memory access runtime profiling for DRAM
-Shmem_metrics                          0 # memory access runtime profiling for noncoalesced accesses
-store_enable                           0 # Enable stores for memory profiling
-accumulate_stats                       0 # Accumulate stats for the memory profiling
-dump_enable                            0 # Process dump enable flag - (def = 0)
-flush_l1d                              0 # Enable flushings for L1D caches - (default = 0)
-flush_l2                               0 # Enable flushings for L2 caches - (default = 0)
-flush_dram                             0 # Enable flushings for DRAM - (default = 0)
-flush_noncoalesceds                    0 # Enable flushings for non coalesced accesses - (default = 0)
-flush_shmems                           0 # Enable flushings for shared memory accesses - (default = 0)
-error_percentage          21474836480001 # Error percentage for the flushes - (default = 1)
-dump_sampling_cycle       21474836485000 # Dump sampling frequency - (default = 5000)
-flush_acc_type                         2 # Flush access types
-monitor_sampling_cycle                 5000 # Monitoring sampling cycle - (default = 5000)
DRAM Timing Options:
nbk                                    16 # number of banks
CCD                                     4 # column to column delay
RRD                                    12 # minimal delay between activation of rows in different banks
RCD                                    24 # row to column delay
RAS                                    55 # time needed to activate row
RP                                     24 # time needed to precharge (deactivate) row
RC                                     78 # row cycle time
CDLR                                   10 # switching from write to read (changes tWTR)
WR                                     24 # last data-in to row precharge
CL                                     24 # CAS latency
WL                                      8 # Write latency
nbkgrp                                  4 # number of bank groups
CCDL                                    6 # column to column delay between accesses to different bank groups
RTPL                                    4 # read to precharge delay between accesses to different bank groups
Total number of memory sub partition = 24
addr_dec_mask[CHIP]  = 0000000000000000 	high:64 low:0
addr_dec_mask[BK]    = 0000000000007080 	high:15 low:7
addr_dec_mask[ROW]   = 000000000fff8000 	high:28 low:15
addr_dec_mask[COL]   = 0000000000000f7f 	high:12 low:0
addr_dec_mask[BURST] = 000000000000001f 	high:5 low:0
sub_partition_id_mask = 0000000000000080
GPGPU-Sim uArch: clock freqs: 1365000000.000000:1365000000.000000:1365000000.000000:3500500000.000000
GPGPU-Sim uArch: clock periods: 0.00000000073260073260:0.00000000073260073260:0.00000000073260073260:0.00000000028567347522
*** Initializing Memory Statistics ***
GPGPU-Sim uArch: performance model initialization complete.
self exe links to: /home/pars/Documents/sim_6/bc_linear_base
self exe links to: /home/pars/Documents/sim_6/bc_linear_base
11.0
GPGPU-Sim PTX: __cudaRegisterFatBinary, fat_cubin_handle = 1, filename=default
self exe links to: /home/pars/Documents/sim_6/bc_linear_base
Running md5sum using "md5sum /home/pars/Documents/sim_6/bc_linear_base "
self exe links to: /home/pars/Documents/sim_6/bc_linear_base
Extracting specific PTX file named bc_linear_base.1.sm_75.ptx 
GPGPU-Sim PTX: __cudaRegisterFunction _ZN3cub11EmptyKernelIvEEvv : hostFun 0x0x56322c1fc376, fat_cubin_handle = 1
GPGPU-Sim PTX: Parsing bc_linear_base.1.sm_75.ptx
GPGPU-Sim PTX: allocating stack frame region for .param "__assertfail_param_0" from 0x0 to 0x8
GPGPU-Sim PTX: allocating stack frame region for .param "__assertfail_param_1" from 0x8 to 0x10
GPGPU-Sim PTX: allocating stack frame region for .param "__assertfail_param_2" from 0x10 to 0x14
GPGPU-Sim PTX: allocating stack frame region for .param "__assertfail_param_3" from 0x14 to 0x1c
GPGPU-Sim PTX: allocating stack frame region for .param "__assertfail_param_4" from 0x1c to 0x24
GPGPU-Sim PTX: allocating global region for "__unnamed_1" from 0x100 to 0x15d (global memory space)
GPGPU-Sim PTX: allocating global region for "_ZN45_INTERNAL_589e0b92_14_linear_base_cu_297024296thrust6system6detail10sequential3seqE" from 0x15d to 0x15e (global memory space)
GPGPU-Sim PTX: allocating global region for "_ZN45_INTERNAL_589e0b92_14_linear_base_cu_297024296thrust6system3cpp3parE" from 0x15e to 0x15f (global memory space)
GPGPU-Sim PTX: allocating global region for "_ZN45_INTERNAL_589e0b92_14_linear_base_cu_297024296thrust8cuda_cub3parE" from 0x15f to 0x160 (global memory space)
GPGPU-Sim PTX: allocating global region for "_ZN45_INTERNAL_589e0b92_14_linear_base_cu_297024296thrust12placeholders2_1E" from 0x160 to 0x161 (global memory space)
GPGPU-Sim PTX: allocating global region for "_ZN45_INTERNAL_589e0b92_14_linear_base_cu_297024296thrust12placeholders2_2E" from 0x161 to 0x162 (global memory space)
GPGPU-Sim PTX: allocating global region for "_ZN45_INTERNAL_589e0b92_14_linear_base_cu_297024296thrust12placeholders2_3E" from 0x162 to 0x163 (global memory space)
GPGPU-Sim PTX: allocating global region for "_ZN45_INTERNAL_589e0b92_14_linear_base_cu_297024296thrust12placeholders2_4E" from 0x163 to 0x164 (global memory space)
GPGPU-Sim PTX: allocating global region for "_ZN45_INTERNAL_589e0b92_14_linear_base_cu_297024296thrust12placeholders2_5E" from 0x164 to 0x165 (global memory space)
GPGPU-Sim PTX: allocating global region for "_ZN45_INTERNAL_589e0b92_14_linear_base_cu_297024296thrust12placeholders2_6E" from 0x165 to 0x166 (global memory space)
GPGPU-Sim PTX: allocating global region for "_ZN45_INTERNAL_589e0b92_14_linear_base_cu_297024296thrust12placeholders2_7E" from 0x166 to 0x167 (global memory space)
GPGPU-Sim PTX: allocating global region for "_ZN45_INTERNAL_589e0b92_14_linear_base_cu_297024296thrust12placeholders2_8E" from 0x167 to 0x168 (global memory space)
GPGPU-Sim PTX: allocating global region for "_ZN45_INTERNAL_589e0b92_14_linear_base_cu_297024296thrust12placeholders2_9E" from 0x168 to 0x169 (global memory space)
GPGPU-Sim PTX: allocating global region for "_ZN45_INTERNAL_589e0b92_14_linear_base_cu_297024296thrust12placeholders3_10E" from 0x169 to 0x16a (global memory space)
GPGPU-Sim PTX: allocating global region for "_ZN45_INTERNAL_589e0b92_14_linear_base_cu_297024296thrust3seqE" from 0x16a to 0x16b (global memory space)
GPGPU-Sim PTX: allocating global region for "_ZN45_INTERNAL_589e0b92_14_linear_base_cu_297024296thrust6deviceE" from 0x16b to 0x16c (global memory space)
GPGPU-Sim PTX: allocating global region for "$str" from 0x180 to 0x194 (global memory space)
GPGPU-Sim PTX: allocating global region for "$str$1" from 0x200 to 0x20f (global memory space)
GPGPU-Sim PTX: allocating shared region for "_ZN6thrust8cuda_cub4core5shmemE" from 0x0 to 0x0 (shared memory space)
GPGPU-Sim PTX: instruction assembly for function '_Z10initializeiPi'...   done.
GPGPU-Sim PTX: instruction assembly for function '_Z6insert9Worklist2iPiS0_'...   done.
GPGPU-Sim PTX: instruction assembly for function '_Z13push_frontier9Worklist2Pii'...   done.
GPGPU-Sim PTX: instruction assembly for function '_Z12bc_normalizeiPff'...   done.
GPGPU-Sim PTX: Warning -- ignoring pragma 'nounroll'
GPGPU-Sim PTX: allocating stack frame region for .param "param0" from 0x0 to 0x8
GPGPU-Sim PTX: allocating stack frame region for .param "param1" from 0x8 to 0x10
GPGPU-Sim PTX: allocating stack frame region for .param "param2" from 0x10 to 0x14
GPGPU-Sim PTX: allocating stack frame region for .param "param3" from 0x14 to 0x1c
GPGPU-Sim PTX: allocating stack frame region for .param "param4" from 0x1c to 0x24
GPGPU-Sim PTX: allocating stack frame region for .param "param0" from 0x24 to 0x2c
GPGPU-Sim PTX: allocating stack frame region for .param "param1" from 0x2c to 0x34
GPGPU-Sim PTX: allocating stack frame region for .param "param2" from 0x34 to 0x38
GPGPU-Sim PTX: allocating stack frame region for .param "param3" from 0x38 to 0x40
GPGPU-Sim PTX: allocating stack frame region for .param "param4" from 0x40 to 0x48
GPGPU-Sim PTX: allocating stack frame region for .param "param0" from 0x48 to 0x50
GPGPU-Sim PTX: allocating stack frame region for .param "param1" from 0x50 to 0x58
GPGPU-Sim PTX: allocating stack frame region for .param "param2" from 0x58 to 0x5c
GPGPU-Sim PTX: allocating stack frame region for .param "param3" from 0x5c to 0x64
GPGPU-Sim PTX: allocating stack frame region for .param "param4" from 0x64 to 0x6c
GPGPU-Sim PTX: allocating stack frame region for .param "param0" from 0x6c to 0x74
GPGPU-Sim PTX: allocating stack frame region for .param "param1" from 0x74 to 0x7c
GPGPU-Sim PTX: allocating stack frame region for .param "param2" from 0x7c to 0x80
GPGPU-Sim PTX: allocating stack frame region for .param "param3" from 0x80 to 0x88
GPGPU-Sim PTX: allocating stack frame region for .param "param4" from 0x88 to 0x90
GPGPU-Sim PTX: allocating stack frame region for .param "param0" from 0x90 to 0x98
GPGPU-Sim PTX: allocating stack frame region for .param "param1" from 0x98 to 0xa0
GPGPU-Sim PTX: allocating stack frame region for .param "param2" from 0xa0 to 0xa4
GPGPU-Sim PTX: allocating stack frame region for .param "param3" from 0xa4 to 0xac
GPGPU-Sim PTX: allocating stack frame region for .param "param4" from 0xac to 0xb4
GPGPU-Sim PTX: instruction assembly for function '_Z10bc_forwardPKmPKiPiS3_i9Worklist2S4_'...   done.
GPGPU-Sim PTX: Warning -- ignoring pragma 'nounroll'
GPGPU-Sim PTX: instruction assembly for function '_Z10bc_reverseiPKmPKiS2_S2_S2_iPfS3_'...   done.
GPGPU-Sim PTX: Warning -- ignoring pragma 'nounroll'
GPGPU-Sim PTX: Warning -- ignoring pragma 'nounroll'
GPGPU-Sim PTX: instruction assembly for function '_ZN6thrust8cuda_cub4core13_kernel_agentINS0_8__reduce11ReduceAgentINS_12zip_iteratorINS_5tupleIPfNS0_19counting_iterator_tIlEENS_9null_typeESA_SA_SA_SA_SA_SA_SA_EEEEPNS6_IflSA_SA_SA_SA_SA_SA_SA_SA_EESD_iNS0_9__extrema9arg_max_fIflNS_4lessIfEEEEEESC_SE_iSJ_EEvT0_T1_T2_T3_'...   done.
GPGPU-Sim PTX: Warning -- ignoring pragma 'nounroll'
GPGPU-Sim PTX: Warning -- ignoring pragma 'nounroll'
GPGPU-Sim PTX: instruction assembly for function '_ZN6thrust8cuda_cub4core13_kernel_agentINS0_8__reduce11ReduceAgentINS_12zip_iteratorINS_5tupleIPfNS0_19counting_iterator_tIlEENS_9null_typeESA_SA_SA_SA_SA_SA_SA_EEEEPNS6_IflSA_SA_SA_SA_SA_SA_SA_SA_EESD_iNS0_9__extrema9arg_max_fIflNS_4lessIfEEEEEESC_SE_iN3cub13GridEvenShareIiEENSL_9GridQueueIjEESJ_EEvT0_T1_T2_T3_T4_T5_'...   done.
GPGPU-Sim PTX: instruction assembly for function '_ZN6thrust8cuda_cub4core13_kernel_agentINS0_8__reduce10DrainAgentIiEEN3cub9GridQueueIjEEiEEvT0_T1_'...   done.
GPGPU-Sim PTX: Warning -- ignoring pragma 'nounroll'
GPGPU-Sim PTX: Warning -- ignoring pragma 'nounroll'
GPGPU-Sim PTX: instruction assembly for function '_ZN6thrust8cuda_cub4core13_kernel_agentINS0_8__reduce11ReduceAgentIPNS_5tupleIflNS_9null_typeES6_S6_S6_S6_S6_S6_S6_EES8_S7_iNS0_9__extrema9arg_max_fIflNS_4lessIfEEEEEES8_S8_iSD_EEvT0_T1_T2_T3_'...   done.
GPGPU-Sim PTX: Warning -- ignoring pragma 'nounroll'
GPGPU-Sim PTX: Warning -- ignoring pragma 'nounroll'
GPGPU-Sim PTX: instruction assembly for function '_ZN6thrust8cuda_cub4core13_kernel_agentINS0_8__reduce11ReduceAgentINS_12zip_iteratorINS_5tupleIPfNS0_19counting_iterator_tIlEENS_9null_typeESA_SA_SA_SA_SA_SA_SA_EEEEPNS6_IflSA_SA_SA_SA_SA_SA_SA_SA_EESD_lNS0_9__extrema9arg_max_fIflNS_4lessIfEEEEEESC_SE_lSJ_EEvT0_T1_T2_T3_'...   done.
GPGPU-Sim PTX: Warning -- ignoring pragma 'nounroll'
GPGPU-Sim PTX: Warning -- ignoring pragma 'nounroll'
GPGPU-Sim PTX: instruction assembly for function '_ZN6thrust8cuda_cub4core13_kernel_agentINS0_8__reduce11ReduceAgentINS_12zip_iteratorINS_5tupleIPfNS0_19counting_iterator_tIlEENS_9null_typeESA_SA_SA_SA_SA_SA_SA_EEEEPNS6_IflSA_SA_SA_SA_SA_SA_SA_SA_EESD_lNS0_9__extrema9arg_max_fIflNS_4lessIfEEEEEESC_SE_lN3cub13GridEvenShareIlEENSL_9GridQueueIyEESJ_EEvT0_T1_T2_T3_T4_T5_'...   done.
GPGPU-Sim PTX: instruction assembly for function '_ZN6thrust8cuda_cub4core13_kernel_agentINS0_8__reduce10DrainAgentIlEEN3cub9GridQueueIyEElEEvT0_T1_'...   done.
GPGPU-Sim PTX: Warning -- ignoring pragma 'nounroll'
GPGPU-Sim PTX: Warning -- ignoring pragma 'nounroll'
GPGPU-Sim PTX: instruction assembly for function '_ZN6thrust8cuda_cub4core13_kernel_agentINS0_8__reduce11ReduceAgentIPNS_5tupleIflNS_9null_typeES6_S6_S6_S6_S6_S6_S6_EES8_S7_lNS0_9__extrema9arg_max_fIflNS_4lessIfEEEEEES8_S8_iSD_EEvT0_T1_T2_T3_'...   done.
GPGPU-Sim PTX: instruction assembly for function '_ZN6thrust8cuda_cub4core13_kernel_agentINS0_14__parallel_for16ParallelForAgentINS0_10for_each_fINS_7pointerINS_5tupleIflNS_9null_typeES8_S8_S8_S8_S8_S8_S8_EENS0_5par_tENS_11use_defaultESB_EENS_6detail16wrapped_functionINSD_23allocator_traits_detail5gozerEvEEEElEESI_lEEvT0_T1_'...   done.
GPGPU-Sim PTX: instruction assembly for function '_ZN6thrust8cuda_cub4core13_kernel_agentINS0_14__parallel_for16ParallelForAgentINS0_20__uninitialized_copy7functorIPNS_5tupleIflNS_9null_typeES8_S8_S8_S8_S8_S8_S8_EENS_7pointerIS9_NS0_5par_tENS_11use_defaultESD_EEEElEESF_lEEvT0_T1_'...   done.
GPGPU-Sim PTX: instruction assembly for function '_ZN6thrust8cuda_cub4core13_kernel_agentINS0_14__parallel_for16ParallelForAgentINS0_11__transform17unary_transform_fIPNS_5tupleIflNS_9null_typeES8_S8_S8_S8_S8_S8_S8_EESA_NS5_14no_stencil_tagENS_8identityIS9_EENS5_21always_true_predicateEEElEESF_lEEvT0_T1_'...   done.
GPGPU-Sim PTX: instruction assembly for function '_ZN3cub11EmptyKernelIvEEvv'...   done.
GPGPU-Sim PTX: finished parsing EMBEDDED .ptx file bc_linear_base.1.sm_75.ptx
GPGPU-Sim PTX: loading globals with explicit initializers... 
GPGPU-Sim PTX:     initializing '__unnamed_1' ...  wrote 93 bytes
GPGPU-Sim PTX:     initializing '$str' ...  wrote 20 bytes
GPGPU-Sim PTX:     initializing '$str$1' ...  wrote 15 bytes
GPGPU-Sim PTX: finished loading globals (128 bytes total).
GPGPU-Sim PTX: loading constants with explicit initializers...  done.
GPGPU-Sim PTX: Loading PTXInfo from bc_linear_base.1.sm_75.ptx
GPGPU-Sim PTX: Kernel '_ZN3cub11EmptyKernelIvEEvv' : regs=4, lmem=0, smem=0, cmem=352
GPGPU-Sim PTX: Kernel '_ZN6thrust8cuda_cub4core13_kernel_agentINS0_14__parallel_for16ParallelForAgentINS0_11__transform17unary_transform_fIPNS_5tupleIflNS_9null_typeES8_S8_S8_S8_S8_S8_S8_EESA_NS5_14no_stencil_tagENS_8identityIS9_EENS5_21always_true_predicateEEElEESF_lEEvT0_T1_' : regs=14, lmem=0, smem=0, cmem=384
GPGPU-Sim PTX: Kernel '_ZN6thrust8cuda_cub4core13_kernel_agentINS0_14__parallel_for16ParallelForAgentINS0_20__uninitialized_copy7functorIPNS_5tupleIflNS_9null_typeES8_S8_S8_S8_S8_S8_S8_EENS_7pointerIS9_NS0_5par_tENS_11use_defaultESD_EEEElEESF_lEEvT0_T1_' : regs=16, lmem=0, smem=0, cmem=376
GPGPU-Sim PTX: Kernel '_ZN6thrust8cuda_cub4core13_kernel_agentINS0_14__parallel_for16ParallelForAgentINS0_10for_each_fINS_7pointerINS_5tupleIflNS_9null_typeES8_S8_S8_S8_S8_S8_S8_EENS0_5par_tENS_11use_defaultESB_EENS_6detail16wrapped_functionINSD_23allocator_traits_detail5gozerEvEEEElEESI_lEEvT0_T1_' : regs=4, lmem=0, smem=0, cmem=376
GPGPU-Sim PTX: Kernel '_ZN6thrust8cuda_cub4core13_kernel_agentINS0_8__reduce11ReduceAgentIPNS_5tupleIflNS_9null_typeES6_S6_S6_S6_S6_S6_S6_EES8_S7_lNS0_9__extrema9arg_max_fIflNS_4lessIfEEEEEES8_S8_iSD_EEvT0_T1_T2_T3_' : regs=34, lmem=0, smem=0, cmem=373
GPGPU-Sim PTX: Kernel '_ZN6thrust8cuda_cub4core13_kernel_agentINS0_8__reduce10DrainAgentIlEEN3cub9GridQueueIyEElEEvT0_T1_' : regs=6, lmem=0, smem=0, cmem=368
GPGPU-Sim PTX: Kernel '_ZN6thrust8cuda_cub4core13_kernel_agentINS0_8__reduce11ReduceAgentINS_12zip_iteratorINS_5tupleIPfNS0_19counting_iterator_tIlEENS_9null_typeESA_SA_SA_SA_SA_SA_SA_EEEEPNS6_IflSA_SA_SA_SA_SA_SA_SA_SA_EESD_lNS0_9__extrema9arg_max_fIflNS_4lessIfEEEEEESC_SE_lN3cub13GridEvenShareIlEENSL_9GridQueueIyEESJ_EEvT0_T1_T2_T3_T4_T5_' : regs=32, lmem=0, smem=0, cmem=465
GPGPU-Sim PTX: Kernel '_ZN6thrust8cuda_cub4core13_kernel_agentINS0_8__reduce11ReduceAgentINS_12zip_iteratorINS_5tupleIPfNS0_19counting_iterator_tIlEENS_9null_typeESA_SA_SA_SA_SA_SA_SA_EEEEPNS6_IflSA_SA_SA_SA_SA_SA_SA_SA_EESD_lNS0_9__extrema9arg_max_fIflNS_4lessIfEEEEEESC_SE_lSJ_EEvT0_T1_T2_T3_' : regs=32, lmem=0, smem=0, cmem=385
GPGPU-Sim PTX: Kernel '_ZN6thrust8cuda_cub4core13_kernel_agentINS0_8__reduce11ReduceAgentIPNS_5tupleIflNS_9null_typeES6_S6_S6_S6_S6_S6_S6_EES8_S7_iNS0_9__extrema9arg_max_fIflNS_4lessIfEEEEEES8_S8_iSD_EEvT0_T1_T2_T3_' : regs=34, lmem=0, smem=0, cmem=373
GPGPU-Sim PTX: Kernel '_ZN6thrust8cuda_cub4core13_kernel_agentINS0_8__reduce10DrainAgentIiEEN3cub9GridQueueIjEEiEEvT0_T1_' : regs=4, lmem=0, smem=0, cmem=364
GPGPU-Sim PTX: Kernel '_ZN6thrust8cuda_cub4core13_kernel_agentINS0_8__reduce11ReduceAgentINS_12zip_iteratorINS_5tupleIPfNS0_19counting_iterator_tIlEENS_9null_typeESA_SA_SA_SA_SA_SA_SA_EEEEPNS6_IflSA_SA_SA_SA_SA_SA_SA_SA_EESD_iNS0_9__extrema9arg_max_fIflNS_4lessIfEEEEEESC_SE_iN3cub13GridEvenShareIiEENSL_9GridQueueIjEESJ_EEvT0_T1_T2_T3_T4_T5_' : regs=32, lmem=0, smem=0, cmem=433
GPGPU-Sim PTX: Kernel '_ZN6thrust8cuda_cub4core13_kernel_agentINS0_8__reduce11ReduceAgentINS_12zip_iteratorINS_5tupleIPfNS0_19counting_iterator_tIlEENS_9null_typeESA_SA_SA_SA_SA_SA_SA_EEEEPNS6_IflSA_SA_SA_SA_SA_SA_SA_SA_EESD_iNS0_9__extrema9arg_max_fIflNS_4lessIfEEEEEESC_SE_iSJ_EEvT0_T1_T2_T3_' : regs=32, lmem=0, smem=0, cmem=381
GPGPU-Sim PTX: Kernel '_Z10bc_reverseiPKmPKiS2_S2_S2_iPfS3_' : regs=27, lmem=0, smem=0, cmem=424
GPGPU-Sim PTX: Kernel '_Z10bc_forwardPKmPKiPiS3_i9Worklist2S4_' : regs=32, lmem=0, smem=0, cmem=456
GPGPU-Sim PTX: Kernel '_Z12bc_normalizeiPff' : regs=16, lmem=0, smem=0, cmem=372
GPGPU-Sim PTX: Kernel '_Z13push_frontier9Worklist2Pii' : regs=8, lmem=0, smem=0, cmem=396
GPGPU-Sim PTX: Kernel '_Z6insert9Worklist2iPiS0_' : regs=15, lmem=0, smem=0, cmem=408
GPGPU-Sim PTX: Kernel '_Z10initializeiPi' : regs=8, lmem=0, smem=0, cmem=368
GPGPU-Sim PTX: __cudaRegisterFunction _ZN6thrust8cuda_cub4core13_kernel_agentINS0_14__parallel_for16ParallelForAgentINS0_11__transform17unary_transform_fIPNS_5tupleIflNS_9null_typeES8_S8_S8_S8_S8_S8_S8_EESA_NS5_14no_stencil_tagENS_8identityIS9_EENS5_21always_true_predicateEEElEESF_lEEvT0_T1_ : hostFun 0x0x56322c1fc85f, fat_cubin_handle = 1
GPGPU-Sim PTX: __cudaRegisterFunction _ZN6thrust8cuda_cub4core13_kernel_agentINS0_14__parallel_for16ParallelForAgentINS0_20__uninitialized_copy7functorIPNS_5tupleIflNS_9null_typeES8_S8_S8_S8_S8_S8_S8_EENS_7pointerIS9_NS0_5par_tENS_11use_defaultESD_EEEElEESF_lEEvT0_T1_ : hostFun 0x0x56322c1fc823, fat_cubin_handle = 1
GPGPU-Sim PTX: __cudaRegisterFunction _ZN6thrust8cuda_cub4core13_kernel_agentINS0_14__parallel_for16ParallelForAgentINS0_10for_each_fINS_7pointerINS_5tupleIflNS_9null_typeES8_S8_S8_S8_S8_S8_S8_EENS0_5par_tENS_11use_defaultESB_EENS_6detail16wrapped_functionINSD_23allocator_traits_detail5gozerEvEEEElEESI_lEEvT0_T1_ : hostFun 0x0x56322c1fc7f6, fat_cubin_handle = 1
GPGPU-Sim PTX: __cudaRegisterFunction _ZN6thrust8cuda_cub4core13_kernel_agentINS0_8__reduce11ReduceAgentIPNS_5tupleIflNS_9null_typeES6_S6_S6_S6_S6_S6_S6_EES8_S7_lNS0_9__extrema9arg_max_fIflNS_4lessIfEEEEEES8_S8_iSD_EEvT0_T1_T2_T3_ : hostFun 0x0x56322c1fc7c8, fat_cubin_handle = 1
GPGPU-Sim PTX: __cudaRegisterFunction _ZN6thrust8cuda_cub4core13_kernel_agentINS0_8__reduce10DrainAgentIlEEN3cub9GridQueueIyEElEEvT0_T1_ : hostFun 0x0x56322c1fc7a2, fat_cubin_handle = 1
GPGPU-Sim PTX: __cudaRegisterFunction _ZN6thrust8cuda_cub4core13_kernel_agentINS0_8__reduce11ReduceAgentINS_12zip_iteratorINS_5tupleIPfNS0_19counting_iterator_tIlEENS_9null_typeESA_SA_SA_SA_SA_SA_SA_EEEEPNS6_IflSA_SA_SA_SA_SA_SA_SA_SA_EESD_lNS0_9__extrema9arg_max_fIflNS_4lessIfEEEEEESC_SE_lN3cub13GridEvenShareIlEENSL_9GridQueueIyEESJ_EEvT0_T1_T2_T3_T4_T5_ : hostFun 0x0x56322c1fc74e, fat_cubin_handle = 1
GPGPU-Sim PTX: __cudaRegisterFunction _ZN6thrust8cuda_cub4core13_kernel_agentINS0_8__reduce11ReduceAgentINS_12zip_iteratorINS_5tupleIPfNS0_19counting_iterator_tIlEENS_9null_typeESA_SA_SA_SA_SA_SA_SA_EEEEPNS6_IflSA_SA_SA_SA_SA_SA_SA_SA_EESD_lNS0_9__extrema9arg_max_fIflNS_4lessIfEEEEEESC_SE_lSJ_EEvT0_T1_T2_T3_ : hostFun 0x0x56322c1fc70c, fat_cubin_handle = 1
GPGPU-Sim PTX: __cudaRegisterFunction _ZN6thrust8cuda_cub4core13_kernel_agentINS0_8__reduce11ReduceAgentIPNS_5tupleIflNS_9null_typeES6_S6_S6_S6_S6_S6_S6_EES8_S7_iNS0_9__extrema9arg_max_fIflNS_4lessIfEEEEEES8_S8_iSD_EEvT0_T1_T2_T3_ : hostFun 0x0x56322c1fc6de, fat_cubin_handle = 1
GPGPU-Sim PTX: __cudaRegisterFunction _ZN6thrust8cuda_cub4core13_kernel_agentINS0_8__reduce10DrainAgentIiEEN3cub9GridQueueIjEEiEEvT0_T1_ : hostFun 0x0x56322c1fc6b9, fat_cubin_handle = 1
GPGPU-Sim PTX: __cudaRegisterFunction _ZN6thrust8cuda_cub4core13_kernel_agentINS0_8__reduce11ReduceAgentINS_12zip_iteratorINS_5tupleIPfNS0_19counting_iterator_tIlEENS_9null_typeESA_SA_SA_SA_SA_SA_SA_EEEEPNS6_IflSA_SA_SA_SA_SA_SA_SA_SA_EESD_iNS0_9__extrema9arg_max_fIflNS_4lessIfEEEEEESC_SE_iN3cub13GridEvenShareIiEENSL_9GridQueueIjEESJ_EEvT0_T1_T2_T3_T4_T5_ : hostFun 0x0x56322c1fc666, fat_cubin_handle = 1
GPGPU-Sim PTX: __cudaRegisterFunction _ZN6thrust8cuda_cub4core13_kernel_agentINS0_8__reduce11ReduceAgentINS_12zip_iteratorINS_5tupleIPfNS0_19counting_iterator_tIlEENS_9null_typeESA_SA_SA_SA_SA_SA_SA_EEEEPNS6_IflSA_SA_SA_SA_SA_SA_SA_SA_EESD_iNS0_9__extrema9arg_max_fIflNS_4lessIfEEEEEESC_SE_iSJ_EEvT0_T1_T2_T3_ : hostFun 0x0x56322c1fc625, fat_cubin_handle = 1
GPGPU-Sim PTX: __cudaRegisterFunction _Z10bc_reverseiPKmPKiS2_S2_S2_iPfS3_ : hostFun 0x0x56322c1f853a, fat_cubin_handle = 1
GPGPU-Sim PTX: __cudaRegisterFunction _Z10bc_forwardPKmPKiPiS3_i9Worklist2S4_ : hostFun 0x0x56322c1f82d6, fat_cubin_handle = 1
GPGPU-Sim PTX: __cudaRegisterFunction _Z12bc_normalizeiPff : hostFun 0x0x56322c1f80b9, fat_cubin_handle = 1
GPGPU-Sim PTX: __cudaRegisterFunction _Z13push_frontier9Worklist2Pii : hostFun 0x0x56322c1f7f36, fat_cubin_handle = 1
GPGPU-Sim PTX: __cudaRegisterFunction _Z6insert9Worklist2iPiS0_ : hostFun 0x0x56322c1f7da4, fat_cubin_handle = 1
GPGPU-Sim PTX: __cudaRegisterFunction _Z10initializeiPi : hostFun 0x0x56322c1f7c0a, fat_cubin_handle = 1
GPGPU-Sim PTX: __cudaRegisterVar: hostVar = 0x56322c21274f; deviceAddress = _ZN45_INTERNAL_589e0b92_14_linear_base_cu_297024296thrust6system6detail10sequential3seqE; deviceName = _ZN45_INTERNAL_589e0b92_14_linear_base_cu_297024296thrust6system6detail10sequential3seqE
GPGPU-Sim PTX: __cudaRegisterVar: Registering const memory space of 1 bytes
GPGPU-Sim PTX registering global _ZN45_INTERNAL_589e0b92_14_linear_base_cu_297024296thrust6system6detail10sequential3seqE hostVar to name mapping
GPGPU-Sim PTX: __cudaRegisterVar: hostVar = 0x56322c212755; deviceAddress = _ZN45_INTERNAL_589e0b92_14_linear_base_cu_297024296thrust6system3cpp3parE; deviceName = _ZN45_INTERNAL_589e0b92_14_linear_base_cu_297024296thrust6system3cpp3parE
GPGPU-Sim PTX: __cudaRegisterVar: Registering const memory space of 1 bytes
GPGPU-Sim PTX registering global _ZN45_INTERNAL_589e0b92_14_linear_base_cu_297024296thrust6system3cpp3parE hostVar to name mapping
GPGPU-Sim PTX: __cudaRegisterVar: hostVar = 0x56322c2128dc; deviceAddress = _ZN45_INTERNAL_589e0b92_14_linear_base_cu_297024296thrust8cuda_cub3parE; deviceName = _ZN45_INTERNAL_589e0b92_14_linear_base_cu_297024296thrust8cuda_cub3parE
GPGPU-Sim PTX: __cudaRegisterVar: Registering const memory space of 1 bytes
GPGPU-Sim PTX registering global _ZN45_INTERNAL_589e0b92_14_linear_base_cu_297024296thrust8cuda_cub3parE hostVar to name mapping
GPGPU-Sim PTX: __cudaRegisterVar: hostVar = 0x56322c212756; deviceAddress = _ZN45_INTERNAL_589e0b92_14_linear_base_cu_297024296thrust12placeholders2_1E; deviceName = _ZN45_INTERNAL_589e0b92_14_linear_base_cu_297024296thrust12placeholders2_1E
GPGPU-Sim PTX: __cudaRegisterVar: Registering const memory space of 1 bytes
GPGPU-Sim PTX registering global _ZN45_INTERNAL_589e0b92_14_linear_base_cu_297024296thrust12placeholders2_1E hostVar to name mapping
GPGPU-Sim PTX: __cudaRegisterVar: hostVar = 0x56322c212757; deviceAddress = _ZN45_INTERNAL_589e0b92_14_linear_base_cu_297024296thrust12placeholders2_2E; deviceName = _ZN45_INTERNAL_589e0b92_14_linear_base_cu_297024296thrust12placeholders2_2E
GPGPU-Sim PTX: __cudaRegisterVar: Registering const memory space of 1 bytes
GPGPU-Sim PTX registering global _ZN45_INTERNAL_589e0b92_14_linear_base_cu_297024296thrust12placeholders2_2E hostVar to name mapping
GPGPU-Sim PTX: __cudaRegisterVar: hostVar = 0x56322c212758; deviceAddress = _ZN45_INTERNAL_589e0b92_14_linear_base_cu_297024296thrust12placeholders2_3E; deviceName = _ZN45_INTERNAL_589e0b92_14_linear_base_cu_297024296thrust12placeholders2_3E
GPGPU-Sim PTX: __cudaRegisterVar: Registering const memory space of 1 bytes
GPGPU-Sim PTX registering global _ZN45_INTERNAL_589e0b92_14_linear_base_cu_297024296thrust12placeholders2_3E hostVar to name mapping
GPGPU-Sim PTX: __cudaRegisterVar: hostVar = 0x56322c212759; deviceAddress = _ZN45_INTERNAL_589e0b92_14_linear_base_cu_297024296thrust12placeholders2_4E; deviceName = _ZN45_INTERNAL_589e0b92_14_linear_base_cu_297024296thrust12placeholders2_4E
GPGPU-Sim PTX: __cudaRegisterVar: Registering const memory space of 1 bytes
GPGPU-Sim PTX registering global _ZN45_INTERNAL_589e0b92_14_linear_base_cu_297024296thrust12placeholders2_4E hostVar to name mapping
GPGPU-Sim PTX: __cudaRegisterVar: hostVar = 0x56322c21275a; deviceAddress = _ZN45_INTERNAL_589e0b92_14_linear_base_cu_297024296thrust12placeholders2_5E; deviceName = _ZN45_INTERNAL_589e0b92_14_linear_base_cu_297024296thrust12placeholders2_5E
GPGPU-Sim PTX: __cudaRegisterVar: Registering const memory space of 1 bytes
GPGPU-Sim PTX registering global _ZN45_INTERNAL_589e0b92_14_linear_base_cu_297024296thrust12placeholders2_5E hostVar to name mapping
GPGPU-Sim PTX: __cudaRegisterVar: hostVar = 0x56322c21275b; deviceAddress = _ZN45_INTERNAL_589e0b92_14_linear_base_cu_297024296thrust12placeholders2_6E; deviceName = _ZN45_INTERNAL_589e0b92_14_linear_base_cu_297024296thrust12placeholders2_6E
GPGPU-Sim PTX: __cudaRegisterVar: Registering const memory space of 1 bytes
GPGPU-Sim PTX registering global _ZN45_INTERNAL_589e0b92_14_linear_base_cu_297024296thrust12placeholders2_6E hostVar to name mapping
GPGPU-Sim PTX: __cudaRegisterVar: hostVar = 0x56322c21275c; deviceAddress = _ZN45_INTERNAL_589e0b92_14_linear_base_cu_297024296thrust12placeholders2_7E; deviceName = _ZN45_INTERNAL_589e0b92_14_linear_base_cu_297024296thrust12placeholders2_7E
GPGPU-Sim PTX: __cudaRegisterVar: Registering const memory space of 1 bytes
GPGPU-Sim PTX registering global _ZN45_INTERNAL_589e0b92_14_linear_base_cu_297024296thrust12placeholders2_7E hostVar to name mapping
GPGPU-Sim PTX: __cudaRegisterVar: hostVar = 0x56322c21275d; deviceAddress = _ZN45_INTERNAL_589e0b92_14_linear_base_cu_297024296thrust12placeholders2_8E; deviceName = _ZN45_INTERNAL_589e0b92_14_linear_base_cu_297024296thrust12placeholders2_8E
GPGPU-Sim PTX: __cudaRegisterVar: Registering const memory space of 1 bytes
GPGPU-Sim PTX registering global _ZN45_INTERNAL_589e0b92_14_linear_base_cu_297024296thrust12placeholders2_8E hostVar to name mapping
GPGPU-Sim PTX: __cudaRegisterVar: hostVar = 0x56322c21275e; deviceAddress = _ZN45_INTERNAL_589e0b92_14_linear_base_cu_297024296thrust12placeholders2_9E; deviceName = _ZN45_INTERNAL_589e0b92_14_linear_base_cu_297024296thrust12placeholders2_9E
GPGPU-Sim PTX: __cudaRegisterVar: Registering const memory space of 1 bytes
GPGPU-Sim PTX registering global _ZN45_INTERNAL_589e0b92_14_linear_base_cu_297024296thrust12placeholders2_9E hostVar to name mapping
GPGPU-Sim PTX: __cudaRegisterVar: hostVar = 0x56322c21275f; deviceAddress = _ZN45_INTERNAL_589e0b92_14_linear_base_cu_297024296thrust12placeholders3_10E; deviceName = _ZN45_INTERNAL_589e0b92_14_linear_base_cu_297024296thrust12placeholders3_10E
GPGPU-Sim PTX: __cudaRegisterVar: Registering const memory space of 1 bytes
GPGPU-Sim PTX registering global _ZN45_INTERNAL_589e0b92_14_linear_base_cu_297024296thrust12placeholders3_10E hostVar to name mapping
GPGPU-Sim PTX: __cudaRegisterVar: hostVar = 0x56322c212754; deviceAddress = _ZN45_INTERNAL_589e0b92_14_linear_base_cu_297024296thrust3seqE; deviceName = _ZN45_INTERNAL_589e0b92_14_linear_base_cu_297024296thrust3seqE
GPGPU-Sim PTX: __cudaRegisterVar: Registering const memory space of 1 bytes
GPGPU-Sim PTX registering global _ZN45_INTERNAL_589e0b92_14_linear_base_cu_297024296thrust3seqE hostVar to name mapping
GPGPU-Sim PTX: __cudaRegisterVar: hostVar = 0x56322c21296a; deviceAddress = _ZN45_INTERNAL_589e0b92_14_linear_base_cu_297024296thrust6deviceE; deviceName = _ZN45_INTERNAL_589e0b92_14_linear_base_cu_297024296thrust6deviceE
GPGPU-Sim PTX: __cudaRegisterVar: Registering const memory space of 1 bytes
GPGPU-Sim PTX registering global _ZN45_INTERNAL_589e0b92_14_linear_base_cu_297024296thrust6deviceE hostVar to name mapping
Betweenness Centrality by Xuhao Chen
Reading (.mtx) input file ../CudaBenchmarks/gardenia/datasets/soc-LiveJournal1.mtx
Removing redundent edges... 0 redundent edges are removed
|V| 4847571 |E| 68475391
GPGPU-Sim PTX: Setting up arguments for 4 bytes starting at 0x7ffcbbbd8d0c..
GPGPU-Sim PTX: Setting up arguments for 8 bytes starting at 0x7ffcbbbd8d00..

GPGPU-Sim PTX: cudaLaunch for 0x0x56322c1f7c0a (mode=performance simulation) on stream 0
GPGPU-Sim PTX: finding reconvergence points for '_Z10initializeiPi'...
GPGPU-Sim PTX: Finding dominators for '_Z10initializeiPi'...
GPGPU-Sim PTX: Finding immediate dominators for '_Z10initializeiPi'...
GPGPU-Sim PTX: Finding postdominators for '_Z10initializeiPi'...
GPGPU-Sim PTX: Finding immediate postdominators for '_Z10initializeiPi'...
GPGPU-Sim PTX: pre-decoding instructions for '_Z10initializeiPi'...
GPGPU-Sim PTX: reconvergence points for _Z10initializeiPi...
GPGPU-Sim PTX:  1 (potential) branch divergence @  PC=0x038 (bc_linear_base.1.sm_75.ptx:60) @%p1 bra $L__BB0_2;

GPGPU-Sim PTX:    immediate post dominator      @  PC=0x068 (bc_linear_base.1.sm_75.ptx:69) ret;

GPGPU-Sim PTX: ... end of reconvergence points for _Z10initializeiPi
GPGPU-Sim PTX: ... done pre-decoding instructions for '_Z10initializeiPi'.
GPGPU-Sim PTX: pushing kernel '_Z10initializeiPi' to stream 0, gridDim= (18936,1,1) blockDim = (256,1,1) 
GPGPU-Sim uArch: Shader 0 bind to kernel 1 '_Z10initializeiPi'
GPGPU-Sim uArch: CTA/core = 4, limited by: threads
GPGPU-Sim: Reconfigure L1 cache to 64KB
GPGPU-Sim uArch: Shader 1 bind to kernel 1 '_Z10initializeiPi'
GPGPU-Sim uArch: Shader 2 bind to kernel 1 '_Z10initializeiPi'
GPGPU-Sim uArch: Shader 3 bind to kernel 1 '_Z10initializeiPi'
GPGPU-Sim uArch: Shader 4 bind to kernel 1 '_Z10initializeiPi'
GPGPU-Sim uArch: Shader 5 bind to kernel 1 '_Z10initializeiPi'
GPGPU-Sim uArch: Shader 6 bind to kernel 1 '_Z10initializeiPi'
GPGPU-Sim uArch: Shader 7 bind to kernel 1 '_Z10initializeiPi'
GPGPU-Sim uArch: Shader 8 bind to kernel 1 '_Z10initializeiPi'
GPGPU-Sim uArch: Shader 9 bind to kernel 1 '_Z10initializeiPi'
GPGPU-Sim uArch: Shader 10 bind to kernel 1 '_Z10initializeiPi'
GPGPU-Sim uArch: Shader 11 bind to kernel 1 '_Z10initializeiPi'
GPGPU-Sim uArch: Shader 12 bind to kernel 1 '_Z10initializeiPi'
GPGPU-Sim uArch: Shader 13 bind to kernel 1 '_Z10initializeiPi'
GPGPU-Sim uArch: Shader 14 bind to kernel 1 '_Z10initializeiPi'
GPGPU-Sim uArch: Shader 15 bind to kernel 1 '_Z10initializeiPi'
GPGPU-Sim uArch: Shader 16 bind to kernel 1 '_Z10initializeiPi'
GPGPU-Sim uArch: Shader 17 bind to kernel 1 '_Z10initializeiPi'
GPGPU-Sim uArch: Shader 18 bind to kernel 1 '_Z10initializeiPi'
GPGPU-Sim uArch: Shader 19 bind to kernel 1 '_Z10initializeiPi'
GPGPU-Sim uArch: Shader 20 bind to kernel 1 '_Z10initializeiPi'
GPGPU-Sim uArch: Shader 21 bind to kernel 1 '_Z10initializeiPi'
GPGPU-Sim uArch: Shader 22 bind to kernel 1 '_Z10initializeiPi'
GPGPU-Sim uArch: Shader 23 bind to kernel 1 '_Z10initializeiPi'
GPGPU-Sim uArch: Shader 24 bind to kernel 1 '_Z10initializeiPi'
GPGPU-Sim uArch: Shader 25 bind to kernel 1 '_Z10initializeiPi'
GPGPU-Sim uArch: Shader 26 bind to kernel 1 '_Z10initializeiPi'
GPGPU-Sim uArch: Shader 27 bind to kernel 1 '_Z10initializeiPi'
GPGPU-Sim uArch: Shader 28 bind to kernel 1 '_Z10initializeiPi'
GPGPU-Sim uArch: Shader 29 bind to kernel 1 '_Z10initializeiPi'
Destroy streams for kernel 1: size 0
kernel_name = _Z10initializeiPi 
kernel_launch_uid = 1 
gpu_sim_cycle = 80656
gpu_sim_insn = 63018828
gpu_ipc =     781.3284
gpu_tot_sim_cycle = 80656
gpu_tot_sim_insn = 63018828
gpu_tot_ipc =     781.3284
gpu_tot_issued_cta = 18936
gpu_occupancy = 87.3584% 
gpu_tot_occupancy = 87.3584% 
max_total_param_size = 0
gpu_stall_dramfull = 55312
gpu_stall_icnt2sh    = 0
partiton_level_parallism =       7.5127
partiton_level_parallism_total  =       7.5127
partiton_level_parallism_util =       8.1401
partiton_level_parallism_util_total  =       8.1401
L2_BW  =     328.1562 GB/Sec
L2_BW_total  =     328.1562 GB/Sec
gpu_total_sim_rate=69865

========= Core cache stats =========
L1I_cache:
	L1I_total_cache_accesses = 0
	L1I_total_cache_misses = 0
	L1I_total_cache_pending_hits = 0
	L1I_total_cache_reservation_fails = 0
L1D_cache:
	L1D_cache_core[0]: Access = 20448, Miss = 20448, Miss_rate = 1.000, Pending_hits = 0, Reservation_fails = 12413
	L1D_cache_core[1]: Access = 20160, Miss = 20160, Miss_rate = 1.000, Pending_hits = 0, Reservation_fails = 12451
	L1D_cache_core[2]: Access = 20320, Miss = 20320, Miss_rate = 1.000, Pending_hits = 0, Reservation_fails = 13018
	L1D_cache_core[3]: Access = 20320, Miss = 20320, Miss_rate = 1.000, Pending_hits = 0, Reservation_fails = 12712
	L1D_cache_core[4]: Access = 20032, Miss = 20032, Miss_rate = 1.000, Pending_hits = 0, Reservation_fails = 13109
	L1D_cache_core[5]: Access = 20288, Miss = 20288, Miss_rate = 1.000, Pending_hits = 0, Reservation_fails = 12910
	L1D_cache_core[6]: Access = 20256, Miss = 20256, Miss_rate = 1.000, Pending_hits = 0, Reservation_fails = 12976
	L1D_cache_core[7]: Access = 20096, Miss = 20096, Miss_rate = 1.000, Pending_hits = 0, Reservation_fails = 13020
	L1D_cache_core[8]: Access = 20032, Miss = 20032, Miss_rate = 1.000, Pending_hits = 0, Reservation_fails = 12897
	L1D_cache_core[9]: Access = 20384, Miss = 20384, Miss_rate = 1.000, Pending_hits = 0, Reservation_fails = 13034
	L1D_cache_core[10]: Access = 20256, Miss = 20256, Miss_rate = 1.000, Pending_hits = 0, Reservation_fails = 12610
	L1D_cache_core[11]: Access = 20000, Miss = 20000, Miss_rate = 1.000, Pending_hits = 0, Reservation_fails = 13016
	L1D_cache_core[12]: Access = 19968, Miss = 19968, Miss_rate = 1.000, Pending_hits = 0, Reservation_fails = 13019
	L1D_cache_core[13]: Access = 20416, Miss = 20416, Miss_rate = 1.000, Pending_hits = 0, Reservation_fails = 12667
	L1D_cache_core[14]: Access = 20192, Miss = 20192, Miss_rate = 1.000, Pending_hits = 0, Reservation_fails = 12953
	L1D_cache_core[15]: Access = 20416, Miss = 20416, Miss_rate = 1.000, Pending_hits = 0, Reservation_fails = 12967
	L1D_cache_core[16]: Access = 20256, Miss = 20256, Miss_rate = 1.000, Pending_hits = 0, Reservation_fails = 12810
	L1D_cache_core[17]: Access = 20128, Miss = 20128, Miss_rate = 1.000, Pending_hits = 0, Reservation_fails = 13270
	L1D_cache_core[18]: Access = 20096, Miss = 20096, Miss_rate = 1.000, Pending_hits = 0, Reservation_fails = 12833
	L1D_cache_core[19]: Access = 20320, Miss = 20320, Miss_rate = 1.000, Pending_hits = 0, Reservation_fails = 13063
	L1D_cache_core[20]: Access = 20251, Miss = 20251, Miss_rate = 1.000, Pending_hits = 0, Reservation_fails = 12854
	L1D_cache_core[21]: Access = 20416, Miss = 20416, Miss_rate = 1.000, Pending_hits = 0, Reservation_fails = 12775
	L1D_cache_core[22]: Access = 19936, Miss = 19936, Miss_rate = 1.000, Pending_hits = 0, Reservation_fails = 13338
	L1D_cache_core[23]: Access = 20000, Miss = 20000, Miss_rate = 1.000, Pending_hits = 0, Reservation_fails = 12966
	L1D_cache_core[24]: Access = 20096, Miss = 20096, Miss_rate = 1.000, Pending_hits = 0, Reservation_fails = 12882
	L1D_cache_core[25]: Access = 20192, Miss = 20192, Miss_rate = 1.000, Pending_hits = 0, Reservation_fails = 12534
	L1D_cache_core[26]: Access = 20224, Miss = 20224, Miss_rate = 1.000, Pending_hits = 0, Reservation_fails = 12858
	L1D_cache_core[27]: Access = 19904, Miss = 19904, Miss_rate = 1.000, Pending_hits = 0, Reservation_fails = 12933
	L1D_cache_core[28]: Access = 20160, Miss = 20160, Miss_rate = 1.000, Pending_hits = 0, Reservation_fails = 12728
	L1D_cache_core[29]: Access = 20384, Miss = 20384, Miss_rate = 1.000, Pending_hits = 0, Reservation_fails = 13066
	L1D_total_cache_accesses = 605947
	L1D_total_cache_misses = 605947
	L1D_total_cache_miss_rate = 1.0000
	L1D_total_cache_pending_hits = 0
	L1D_total_cache_reservation_fails = 386682
	L1D_cache_data_port_util = 0.000
	L1D_cache_fill_port_util = 0.000
L1C_cache:
	L1C_total_cache_accesses = 0
	L1C_total_cache_misses = 0
	L1C_total_cache_pending_hits = 0
	L1C_total_cache_reservation_fails = 0
L1T_cache:
	L1T_total_cache_accesses = 0
	L1T_total_cache_misses = 0
	L1T_total_cache_pending_hits = 0
	L1T_total_cache_reservation_fails = 0

Total_core_cache_stats:
	Total_core_cache_stats_breakdown[GLOBAL_ACC_R][HIT] = 0
	Total_core_cache_stats_breakdown[GLOBAL_ACC_R][HIT_RESERVED] = 0
	Total_core_cache_stats_breakdown[GLOBAL_ACC_R][MISS] = 0
	Total_core_cache_stats_breakdown[GLOBAL_ACC_R][RESERVATION_FAIL] = 0
	Total_core_cache_stats_breakdown[GLOBAL_ACC_R][SECTOR_MISS] = 0
	Total_core_cache_stats_breakdown[GLOBAL_ACC_R][MSHR_HIT] = 0
	Total_core_cache_stats_breakdown[LOCAL_ACC_R][HIT] = 0
	Total_core_cache_stats_breakdown[LOCAL_ACC_R][HIT_RESERVED] = 0
	Total_core_cache_stats_breakdown[LOCAL_ACC_R][MISS] = 0
	Total_core_cache_stats_breakdown[LOCAL_ACC_R][RESERVATION_FAIL] = 0
	Total_core_cache_stats_breakdown[LOCAL_ACC_R][SECTOR_MISS] = 0
	Total_core_cache_stats_breakdown[LOCAL_ACC_R][MSHR_HIT] = 0
	Total_core_cache_stats_breakdown[CONST_ACC_R][HIT] = 0
	Total_core_cache_stats_breakdown[CONST_ACC_R][HIT_RESERVED] = 0
	Total_core_cache_stats_breakdown[CONST_ACC_R][MISS] = 0
	Total_core_cache_stats_breakdown[CONST_ACC_R][RESERVATION_FAIL] = 0
	Total_core_cache_stats_breakdown[CONST_ACC_R][SECTOR_MISS] = 0
	Total_core_cache_stats_breakdown[CONST_ACC_R][MSHR_HIT] = 0
	Total_core_cache_stats_breakdown[TEXTURE_ACC_R][HIT] = 0
	Total_core_cache_stats_breakdown[TEXTURE_ACC_R][HIT_RESERVED] = 0
	Total_core_cache_stats_breakdown[TEXTURE_ACC_R][MISS] = 0
	Total_core_cache_stats_breakdown[TEXTURE_ACC_R][RESERVATION_FAIL] = 0
	Total_core_cache_stats_breakdown[TEXTURE_ACC_R][SECTOR_MISS] = 0
	Total_core_cache_stats_breakdown[TEXTURE_ACC_R][MSHR_HIT] = 0
	Total_core_cache_stats_breakdown[GLOBAL_ACC_W][HIT] = 0
	Total_core_cache_stats_breakdown[GLOBAL_ACC_W][HIT_RESERVED] = 0
	Total_core_cache_stats_breakdown[GLOBAL_ACC_W][MISS] = 151487
	Total_core_cache_stats_breakdown[GLOBAL_ACC_W][RESERVATION_FAIL] = 386682
	Total_core_cache_stats_breakdown[GLOBAL_ACC_W][SECTOR_MISS] = 454460
	Total_core_cache_stats_breakdown[GLOBAL_ACC_W][MSHR_HIT] = 0
	Total_core_cache_stats_breakdown[LOCAL_ACC_W][HIT] = 0
	Total_core_cache_stats_breakdown[LOCAL_ACC_W][HIT_RESERVED] = 0
	Total_core_cache_stats_breakdown[LOCAL_ACC_W][MISS] = 0
	Total_core_cache_stats_breakdown[LOCAL_ACC_W][RESERVATION_FAIL] = 0
	Total_core_cache_stats_breakdown[LOCAL_ACC_W][SECTOR_MISS] = 0
	Total_core_cache_stats_breakdown[LOCAL_ACC_W][MSHR_HIT] = 0
	Total_core_cache_stats_breakdown[L1_WRBK_ACC][HIT] = 0
	Total_core_cache_stats_breakdown[L1_WRBK_ACC][HIT_RESERVED] = 0
	Total_core_cache_stats_breakdown[L1_WRBK_ACC][MISS] = 0
	Total_core_cache_stats_breakdown[L1_WRBK_ACC][RESERVATION_FAIL] = 0
	Total_core_cache_stats_breakdown[L1_WRBK_ACC][SECTOR_MISS] = 0
	Total_core_cache_stats_breakdown[L1_WRBK_ACC][MSHR_HIT] = 0
	Total_core_cache_stats_breakdown[L2_WRBK_ACC][HIT] = 0
	Total_core_cache_stats_breakdown[L2_WRBK_ACC][HIT_RESERVED] = 0
	Total_core_cache_stats_breakdown[L2_WRBK_ACC][MISS] = 0
	Total_core_cache_stats_breakdown[L2_WRBK_ACC][RESERVATION_FAIL] = 0
	Total_core_cache_stats_breakdown[L2_WRBK_ACC][SECTOR_MISS] = 0
	Total_core_cache_stats_breakdown[L2_WRBK_ACC][MSHR_HIT] = 0
	Total_core_cache_stats_breakdown[INST_ACC_R][HIT] = 0
	Total_core_cache_stats_breakdown[INST_ACC_R][HIT_RESERVED] = 0
	Total_core_cache_stats_breakdown[INST_ACC_R][MISS] = 0
	Total_core_cache_stats_breakdown[INST_ACC_R][RESERVATION_FAIL] = 0
	Total_core_cache_stats_breakdown[INST_ACC_R][SECTOR_MISS] = 0
	Total_core_cache_stats_breakdown[INST_ACC_R][MSHR_HIT] = 0
	Total_core_cache_stats_breakdown[L1_WR_ALLOC_R][HIT] = 0
	Total_core_cache_stats_breakdown[L1_WR_ALLOC_R][HIT_RESERVED] = 0
	Total_core_cache_stats_breakdown[L1_WR_ALLOC_R][MISS] = 0
	Total_core_cache_stats_breakdown[L1_WR_ALLOC_R][RESERVATION_FAIL] = 0
	Total_core_cache_stats_breakdown[L1_WR_ALLOC_R][SECTOR_MISS] = 0
	Total_core_cache_stats_breakdown[L1_WR_ALLOC_R][MSHR_HIT] = 0
	Total_core_cache_stats_breakdown[L2_WR_ALLOC_R][HIT] = 0
	Total_core_cache_stats_breakdown[L2_WR_ALLOC_R][HIT_RESERVED] = 0
	Total_core_cache_stats_breakdown[L2_WR_ALLOC_R][MISS] = 0
	Total_core_cache_stats_breakdown[L2_WR_ALLOC_R][RESERVATION_FAIL] = 0
	Total_core_cache_stats_breakdown[L2_WR_ALLOC_R][SECTOR_MISS] = 0
	Total_core_cache_stats_breakdown[L2_WR_ALLOC_R][MSHR_HIT] = 0
	Total_core_cache_stats_breakdown[GLOBAL_ACC_W][TOTAL_ACCESS] = 605947

Total_core_cache_fail_stats:
	Total_core_cache_fail_stats_breakdown[GLOBAL_ACC_W][MISS_QUEUE_FULL] = 386682
ctas_completed 18936, Shader 0 warp_id issue ditsribution:
warp_id:
0, 1, 2, 3, 4, 5, 6, 7, 8, 9, 10, 11, 12, 13, 14, 15, 16, 17, 18, 19, 20, 21, 22, 23, 24, 25, 26, 27, 28, 29, 30, 31, 
distro:
2226, 2226, 2226, 2226, 2226, 2226, 2226, 2226, 2240, 2240, 2240, 2240, 2240, 2240, 2240, 2240, 2240, 2240, 2240, 2240, 2240, 2240, 2240, 2240, 2240, 2240, 2240, 2240, 2240, 2240, 2240, 2240, 
gpgpu_n_tot_thrd_icount = 67866464
gpgpu_n_tot_w_icount = 2120827
gpgpu_n_stall_shd_mem = 0
gpgpu_n_mem_read_local = 0
gpgpu_n_mem_write_local = 0
gpgpu_n_mem_read_global = 0
gpgpu_n_mem_write_global = 605947
gpgpu_n_mem_texture = 0
gpgpu_n_mem_const = 0
gpgpu_n_load_insn  = 0
gpgpu_n_store_insn = 4847571
gpgpu_n_shmem_insn = 0
gpgpu_n_sstarr_insn = 0
gpgpu_n_tex_insn = 0
gpgpu_n_const_mem_insn = 0
gpgpu_n_param_mem_insn = 9695232
gpgpu_n_shmem_bkconflict = 0
gpgpu_n_cache_bkconflict = 0
gpgpu_n_intrawarp_mshr_merge = 0
gpgpu_n_cmem_portconflict = 0
gpgpu_stall_shd_mem[c_mem][resource_stall] = 0
gpgpu_stall_shd_mem[s_mem][bk_conf] = 0
gpgpu_stall_shd_mem[gl_mem][resource_stall] = 0
gpgpu_stall_shd_mem[gl_mem][coal_stall] = 0
gpgpu_stall_shd_mem[gl_mem][data_port_stall] = 0
gpu_reg_bank_conflict_stalls = 0
Warp Occupancy Distribution:
Stall:447626	W0_Idle:5078485	W0_Scoreboard:1418966	W1:0	W2:0	W3:0	W4:0	W5:0	W6:0	W7:0	W8:0	W9:0	W10:0	W11:0	W12:0	W13:0	W14:0	W15:0	W16:0	W17:0	W18:0	W19:5	W20:0	W21:0	W22:0	W23:0	W24:0	W25:0	W26:0	W27:0	W28:0	W29:0	W30:0	W31:0	W32:2120822
single_issue_nums: WS0:530208	WS1:530208	WS2:530208	WS3:530203	
dual_issue_nums: WS0:0	WS1:0	WS2:0	WS3:0	
traffic_breakdown_coretomem[GLOBAL_ACC_W] = 24237880 {40:605947,}
traffic_breakdown_memtocore[GLOBAL_ACC_W] = 4847576 {8:605947,}
maxmflatency = 607 
max_icnt2mem_latency = 403 
maxmrqlatency = 1475 
max_icnt2sh_latency = 140 
averagemflatency = 334 
avg_icnt2mem_latency = 57 
avg_mrq_latency = 390 
avg_icnt2sh_latency = 7 
mrq_lat_table:7917 	62 	150 	339 	493 	2238 	19205 	18651 	37460 	34897 	2880 	0 	0 	0 	0 	0 	0 	0 	0 	0 	0 	0 	0 	0 	0 	0 	0 	0 	0 	0 	0 	0 	
dq_lat_table:0 	0 	0 	0 	0 	0 	0 	0 	0 	0 	0 	0 	0 	0 	0 	0 	0 	0 	0 	0 	0 	0 	0 	0 	0 	0 	0 	0 	0 	0 	0 	0 	
mf_lat_table:0 	0 	0 	0 	0 	0 	0 	83863 	520589 	1495 	0 	0 	0 	0 	0 	0 	0 	0 	0 	0 	0 	0 	0 	0 	0 	0 	0 	0 	0 	0 	0 	0 	
icnt2mem_lat_table:0 	0 	0 	0 	0 	494478 	98823 	9962 	2684 	0 	0 	0 	0 	0 	0 	0 	0 	0 	0 	0 	0 	0 	0 	0 	
icnt2sh_lat_table:0 	343455 	119371 	64917 	44221 	29302 	4676 	5 	0 	0 	0 	0 	0 	0 	0 	0 	0 	0 	0 	0 	0 	0 	0 	0 	
mf_lat_pw_table:0 	0 	0 	0 	0 	0 	0 	0 	75 	0 	0 	0 	0 	0 	0 	0 	0 	0 	0 	0 	0 	0 	0 	0 	0 	0 	0 	0 	0 	0 	0 	0 	
maximum concurrent accesses to same row:
dram[0]:        16        16        16        16        16        16        16        16        16        16        16        16        16        16        16        16 
dram[1]:        16        16        16        16        16        16        16        16        16        16        16        16        16        16        16        16 
dram[2]:        16        16        16        16        16        16        16        16        16        16        16        16        16        16        16        16 
dram[3]:        16        16        16        16        16        16        16        16        16        16        16        16        16        16        16        16 
dram[4]:        16        16        16        16        16        16        16        16        16        16        16        16        16        16        16        16 
dram[5]:        16        16        16        16        16        16        16        16        16        16        16        16        16        16        16        16 
dram[6]:        16        16        16        16        16        16        16        16        16        16        16        16        16        16        16        16 
dram[7]:        16        16        16        16        16        16        16        16        16        16        16        16        16        16        16        16 
dram[8]:        16        16        16        16        16        16        16        16        16        16        16        16        16        16        16        16 
dram[9]:        16        16        16        16        16        16        16        16        16        16        16        16        16        16        16        16 
dram[10]:        16        16        16        16        16        16        16        16        16        16        16        16        16        16        16        16 
dram[11]:        16        16        16        16        16        16        16        16        16        16        16        16        16        16        16        16 
maximum service time to same row:
dram[0]:     17652     17658     15967     15971     16441     16445     16265     16269     16710     16703     16570     16575     17007     17015     16880     16890 
dram[1]:     17659     17674     15985     15979     16454     16455     16259     16263     16717     16720     16582     16592     17015     17018     16891     16894 
dram[2]:     17674     17677     15983     15984     16454     16455     16267     16275     16718     16715     16592     16593     17025     17027     16883     16892 
dram[3]:     17648     17650     15979     15967     16433     16437     16248     16253     16705     16713     16559     16563     17034     17025     16891     16889 
dram[4]:     17654     17654     15971     15975     16441     16445     16258     16247     16726     16719     16570     16574     17045     17038     16892     16902 
dram[5]:     17661     17656     15989     15983     16449     16458     16269     16271     16722     16709     16586     16590     17037     17041     16899     16904 
dram[6]:     17656     17658     15987     15988     16453     16457     16242     16267     16713     16726     16588     16588     17036     17050     16905     16906 
dram[7]:     17645     17640     15992     15996     16443     16435     16238     16244     16690     16700     16571     16563     17034     17023     16877     16883 
dram[8]:     17639     17658     15994     16004     16439     16447     16237     16243     16696     16707     16561     16574     17033     17017     16886     16889 
dram[9]:     17657     17664     15998     16002     16451     16458     16262     16268     16706     16711     16578     16590     17056     17058     16896     16902 
dram[10]:     17662     17663     16014     16015     16462     16457     16269     16268     16714     16710     16580     16584     17058     17060     16902     16903 
dram[11]:     17644     17650     15995     16000     16455     16461     16254     16260     16718     16729     16565     16561     17025     17029     16879     16883 
average row accesses per activate:
dram[0]: 15.875000 15.875000 15.878049 15.902439 15.975610 15.975610 16.000000 16.000000 16.000000 16.000000 15.707317 15.707317 15.804878 15.780488 15.902439 15.878049 
dram[1]: 15.825000 15.825000 15.902439 15.878049 15.975610 15.975610 16.000000 16.000000 16.000000 16.000000 15.707317 15.682927 15.804878 15.804878 15.878049 15.878049 
dram[2]: 15.825000 15.850000 15.902439 15.902439 15.926829 15.951220 16.000000 16.000000 16.000000 16.000000 15.707317 15.707317 15.829268 15.829268 15.878049 15.878049 
dram[3]: 15.925000 15.925000 15.926829 15.926829 15.951220 15.902439 16.000000 16.000000 16.000000 16.000000 15.682927 15.707317 15.780488 15.756098 15.853659 15.853659 
dram[4]: 15.950000 15.875000 15.878049 15.853659 15.975610 16.000000 16.000000 16.000000 16.000000 16.000000 15.707317 15.707317 15.780488 15.804878 15.878049 15.878049 
dram[5]: 15.850000 15.900000 15.878049 15.902439 16.000000 15.975610 15.975610 16.000000 16.000000 16.000000 15.682927 15.682927 15.804878 15.804878 15.878049 15.829268 
dram[6]: 15.825000 15.875000 15.926829 15.926829 16.000000 16.000000 16.000000 16.000000 16.000000 16.000000 15.707317 15.707317 15.780488 15.804878 15.804878 15.780488 
dram[7]: 15.900000 15.875000 15.926829 15.926829 15.926829 15.951220 15.975610 16.000000 16.000000 16.000000 15.682927 15.707317 15.804878 15.804878 15.878049 15.853659 
dram[8]: 15.825000 15.825000 15.926829 15.926829 15.951220 15.975610 16.000000 16.000000 16.000000 16.000000 15.707317 15.707317 15.780488 15.780488 15.878049 15.878049 
dram[9]: 15.900000 15.900000 15.926829 15.926829 15.902439 16.000000 16.000000 16.000000 16.000000 16.000000 15.682927 15.707317 15.780488 15.780488 15.853659 15.829268 
dram[10]: 15.850000 15.825000 15.926829 15.926829 16.000000 16.000000 16.000000 16.000000 16.000000 16.000000 15.682927 15.658537 15.756098 15.780488 15.829268 15.829268 
dram[11]: 15.875000 15.900000 16.000000 16.000000 16.000000 16.000000 16.000000 16.000000 16.000000 16.000000 15.658537 15.658537 15.731708 15.731708 15.804878 15.804878 
average row locality = 124292/7824 = 15.885992
number of total memory accesses made:
dram[0]:         0         0         0         0         0         0         0         0         0         0         0         0         0         0         0         0 
dram[1]:         0         0         0         0         0         0         0         0         0         0         0         0         0         0         0         0 
dram[2]:         0         0         0         0         0         0         0         0         0         0         0         0         0         0         0         0 
dram[3]:         0         0         0         0         0         0         0         0         0         0         0         0         0         0         0         0 
dram[4]:         0         0         0         0         0         0         0         0         0         0         0         0         0         0         0         0 
dram[5]:         0         0         0         0         0         0         0         0         0         0         0         0         0         0         0         0 
dram[6]:         0         0         0         0         0         0         0         0         0         0         0         0         0         0         0         0 
dram[7]:         0         0         0         0         0         0         0         0         0         0         0         0         0         0         0         0 
dram[8]:         0         0         0         0         0         0         0         0         0         0         0         0         0         0         0         0 
dram[9]:         0         0         0         0         0         0         0         0         0         0         0         0         0         0         0         0 
dram[10]:         0         0         0         0         0         0         0         0         0         0         0         0         0         0         0         0 
dram[11]:         0         0         0         0         0         0         0         0         0         0         0         0         0         0         0         0 
total accesses: 0
min_bank_accesses = 0!
min_chip_accesses = 0!
number of total read accesses:
dram[0]:         0         0         0         0         0         0         0         0         0         0         0         0         0         0         0         0 
dram[1]:         0         0         0         0         0         0         0         0         0         0         0         0         0         0         0         0 
dram[2]:         0         0         0         0         0         0         0         0         0         0         0         0         0         0         0         0 
dram[3]:         0         0         0         0         0         0         0         0         0         0         0         0         0         0         0         0 
dram[4]:         0         0         0         0         0         0         0         0         0         0         0         0         0         0         0         0 
dram[5]:         0         0         0         0         0         0         0         0         0         0         0         0         0         0         0         0 
dram[6]:         0         0         0         0         0         0         0         0         0         0         0         0         0         0         0         0 
dram[7]:         0         0         0         0         0         0         0         0         0         0         0         0         0         0         0         0 
dram[8]:         0         0         0         0         0         0         0         0         0         0         0         0         0         0         0         0 
dram[9]:         0         0         0         0         0         0         0         0         0         0         0         0         0         0         0         0 
dram[10]:         0         0         0         0         0         0         0         0         0         0         0         0         0         0         0         0 
[...]

------------------------------------------------------------------------

Row_Buffer_Locality = 0.058795
Row_Buffer_Locality_read = 0.061485
Row_Buffer_Locality_write = 0.042695
Bank_Level_Parallism = 10.743293
Bank_Level_Parallism_Col = 2.492149
Bank_Level_Parallism_Ready = 1.209156
write_to_read_ratio_blp_rw_average = 0.188657
GrpLevelPara = 2.127749 

BW Util details:
bwutil = 0.246290 
total_CMD = 168367567 
util_bw = 41467272 
Wasted_Col = 78476894 
Wasted_Row = 1805462 
Idle = 46617939 

BW Util Bottlenecks: 
RCDc_limit = 130018455 
RCDWRc_limit = 12175280 
WTRc_limit = 51116198 
RTWc_limit = 36652094 
CCDLc_limit = 8012961 
rwq = 0 
CCDLc_limit_alone = 5649930 
WTRc_limit_alone = 49936077 
RTWc_limit_alone = 35469184 

Commands details: 
total_CMD = 168367567 
n_nop = 142017177 
Read = 8631051 
Write = 0 
L2_Alloc = 0 
L2_WB = 1735767 
n_act = 9480768 
n_pre = 9480752 
n_ref = 0 
n_req = 10073013 
total_req = 10366818 

Dual Bus Interface Util: 
issued_total_row = 18961520 
issued_total_col = 10366818 
Row_Bus_Util =  0.112620 
CoL_Bus_Util = 0.061573 
Either_Row_CoL_Bus_Util = 0.156505 
Issued_on_Two_Bus_Simul_Util = 0.017687 
issued_two_Eff = 0.113013 
queue_avg = 19.292206 


dram_util_bins: 0 0 0 0 0 0 0 0 0 0
dram_eff_bins: 0 0 0 0 0 0 0 0 0 0
mrqq: max=64 avg=19.2922
Memory Partition 9: 
Cache L2_bank_018:
MSHR contents

Cache L2_bank_019:
MSHR contents

In Dram Latency Queue (total = 0): 
DRAM[9]: 16 bks, busW=2 BL=16 CL=24, tRRD=12 tCCD=4, tRCD=24 tRAS=55 tRP=24 tRC=78
n_cmd=168367567 n_nop=142080711 n_act=9460442 n_pre=9460426 n_ref_event=0 n_req=10041944 n_rd=8602304 n_rd_L2_A=0 n_write=0 n_wr_bk=1731914 bw_util=0.2455
n_activity=122578190 dram_eff=0.3372
bk0: 525437a 88952383i bk1: 525132a 88964605i bk2: 569418a 83908373i bk3: 559992a 85192497i bk4: 544346a 87229775i bk5: 547654a 86861422i bk6: 540188a 87851426i bk7: 538720a 88107121i bk8: 529877a 88708927i bk9: 530631a 88924651i bk10: 531454a 88919406i bk11: 523836a 89711318i bk12: 532025a 88939690i bk13: 528211a 89221796i bk14: 540568a 87015099i bk15: 534815a 87830605i 

------------------------------------------------------------------------

Row_Buffer_Locality = 0.057907
Row_Buffer_Locality_read = 0.060668
Row_Buffer_Locality_write = 0.041411
Bank_Level_Parallism = 10.653518
Bank_Level_Parallism_Col = 2.483844
Bank_Level_Parallism_Ready = 1.207196
write_to_read_ratio_blp_rw_average = 0.188563
GrpLevelPara = 2.122079 

BW Util details:
bwutil = 0.245516 
total_CMD = 168367567 
util_bw = 41336872 
Wasted_Col = 78538229 
Wasted_Row = 1855085 
Idle = 46637381 

BW Util Bottlenecks: 
RCDc_limit = 129866632 
RCDWRc_limit = 12205030 
WTRc_limit = 50934181 
RTWc_limit = 36465642 
CCDLc_limit = 7982128 
rwq = 0 
CCDLc_limit_alone = 5628765 
WTRc_limit_alone = 49758243 
RTWc_limit_alone = 35288217 

Commands details: 
total_CMD = 168367567 
n_nop = 142080711 
Read = 8602304 
Write = 0 
L2_Alloc = 0 
L2_WB = 1731914 
n_act = 9460442 
n_pre = 9460426 
n_ref = 0 
n_req = 10041944 
total_req = 10334218 

Dual Bus Interface Util: 
issued_total_row = 18920868 
issued_total_col = 10334218 
Row_Bus_Util =  0.112378 
CoL_Bus_Util = 0.061379 
Either_Row_CoL_Bus_Util = 0.156128 
Issued_on_Two_Bus_Simul_Util = 0.017629 
issued_two_Eff = 0.112917 
queue_avg = 19.020952 


dram_util_bins: 0 0 0 0 0 0 0 0 0 0
dram_eff_bins: 0 0 0 0 0 0 0 0 0 0
mrqq: max=64 avg=19.021
Memory Partition 10: 
Cache L2_bank_020:
MSHR contents

Cache L2_bank_021:
MSHR contents

In Dram Latency Queue (total = 0): 
DRAM[10]: 16 bks, busW=2 BL=16 CL=24, tRRD=12 tCCD=4, tRCD=24 tRAS=55 tRP=24 tRC=78
n_cmd=168367567 n_nop=142038004 n_act=9468786 n_pre=9468770 n_ref_event=0 n_req=10052422 n_rd=8619901 n_rd_L2_A=0 n_write=0 n_wr_bk=1725164 bw_util=0.2458
n_activity=122777838 dram_eff=0.337
bk0: 531725a 88784319i bk1: 526565a 89535746i bk2: 551330a 87060183i bk3: 562379a 86062233i bk4: 544153a 87718660i bk5: 552969a 86718736i bk6: 538609a 88443394i bk7: 539443a 88404894i bk8: 531987a 89415469i bk9: 529558a 89765983i bk10: 528231a 89833525i bk11: 529771a 89929669i bk12: 536311a 88978665i bk13: 532061a 89484148i bk14: 541240a 87935954i bk15: 543569a 87483199i 

------------------------------------------------------------------------

Row_Buffer_Locality = 0.058059
Row_Buffer_Locality_read = 0.060551
Row_Buffer_Locality_write = 0.043068
Bank_Level_Parallism = 10.558955
Bank_Level_Parallism_Col = 2.483370
Bank_Level_Parallism_Ready = 1.208188
write_to_read_ratio_blp_rw_average = 0.187486
GrpLevelPara = 2.119749 

BW Util details:
bwutil = 0.245773 
total_CMD = 168367567 
util_bw = 41380260 
Wasted_Col = 78711361 
Wasted_Row = 1851876 
Idle = 46424070 

BW Util Bottlenecks: 
RCDc_limit = 130244697 
RCDWRc_limit = 12097843 
WTRc_limit = 50864530 
RTWc_limit = 36414113 
CCDLc_limit = 8000274 
rwq = 0 
CCDLc_limit_alone = 5638656 
WTRc_limit_alone = 49684469 
RTWc_limit_alone = 35232556 

Commands details: 
total_CMD = 168367567 
n_nop = 142038004 
Read = 8619901 
Write = 0 
L2_Alloc = 0 
L2_WB = 1725164 
n_act = 9468786 
n_pre = 9468770 
n_ref = 0 
n_req = 10052422 
total_req = 10345065 

Dual Bus Interface Util: 
issued_total_row = 18937556 
issued_total_col = 10345065 
Row_Bus_Util =  0.112477 
CoL_Bus_Util = 0.061443 
Either_Row_CoL_Bus_Util = 0.156381 
Issued_on_Two_Bus_Simul_Util = 0.017539 
issued_two_Eff = 0.112157 
queue_avg = 18.529366 


dram_util_bins: 0 0 0 0 0 0 0 0 0 0
dram_eff_bins: 0 0 0 0 0 0 0 0 0 0
mrqq: max=64 avg=18.5294
Memory Partition 11: 
Cache L2_bank_022:
MSHR contents

Cache L2_bank_023:
MSHR contents

In Dram Latency Queue (total = 0): 
DRAM[11]: 16 bks, busW=2 BL=16 CL=24, tRRD=12 tCCD=4, tRCD=24 tRAS=55 tRP=24 tRC=78
n_cmd=168367567 n_nop=142166596 n_act=9418054 n_pre=9418038 n_ref_event=0 n_req=9977568 n_rd=8544579 n_rd_L2_A=0 n_write=0 n_wr_bk=1726299 bw_util=0.244
n_activity=122567195 dram_eff=0.3352
bk0: 528530a 90198126i bk1: 523958a 90635908i bk2: 556870a 87509138i bk3: 545671a 88436156i bk4: 536097a 89685995i bk5: 549973a 88111922i bk6: 538241a 89430278i bk7: 527235a 90733524i bk8: 526487a 90979084i bk9: 526586a 90939813i bk10: 521700a 91605881i bk11: 525806a 90946523i bk12: 534275a 89829765i bk13: 528634a 90573966i bk14: 539687a 89131616i bk15: 534829a 89191394i 

------------------------------------------------------------------------

Row_Buffer_Locality = 0.056077
Row_Buffer_Locality_read = 0.058634
Row_Buffer_Locality_write = 0.040829
Bank_Level_Parallism = 10.394070
Bank_Level_Parallism_Col = 2.471761
Bank_Level_Parallism_Ready = 1.206346
write_to_read_ratio_blp_rw_average = 0.187605
GrpLevelPara = 2.111388 

BW Util details:
bwutil = 0.244011 
total_CMD = 168367567 
util_bw = 41083512 
Wasted_Col = 78658963 
Wasted_Row = 1968317 
Idle = 46656775 

BW Util Bottlenecks: 
RCDc_limit = 129663506 
RCDWRc_limit = 12181800 
WTRc_limit = 50787090 
RTWc_limit = 36076507 
CCDLc_limit = 7917432 
rwq = 0 
CCDLc_limit_alone = 5581118 
WTRc_limit_alone = 49610785 
RTWc_limit_alone = 34916498 

Commands details: 
total_CMD = 168367567 
n_nop = 142166596 
Read = 8544579 
Write = 0 
L2_Alloc = 0 
L2_WB = 1726299 
n_act = 9418054 
n_pre = 9418038 
n_ref = 0 
n_req = 9977568 
total_req = 10270878 

Dual Bus Interface Util: 
issued_total_row = 18836092 
issued_total_col = 10270878 
Row_Bus_Util =  0.111875 
CoL_Bus_Util = 0.061003 
Either_Row_CoL_Bus_Util = 0.155618 
Issued_on_Two_Bus_Simul_Util = 0.017260 
issued_two_Eff = 0.110912 
queue_avg = 17.509968 


dram_util_bins: 0 0 0 0 0 0 0 0 0 0
dram_eff_bins: 0 0 0 0 0 0 0 0 0 0
mrqq: max=64 avg=17.51

========= L2 cache stats =========
L2_cache_bank[0]: Access = 8460043, Miss = 4473739, Miss_rate = 0.529, Pending_hits = 34425, Reservation_fails = 13732
L2_cache_bank[1]: Access = 8408792, Miss = 4460061, Miss_rate = 0.530, Pending_hits = 33800, Reservation_fails = 17434
L2_cache_bank[2]: Access = 8507014, Miss = 4512124, Miss_rate = 0.530, Pending_hits = 35321, Reservation_fails = 14195
L2_cache_bank[3]: Access = 8459293, Miss = 4496782, Miss_rate = 0.532, Pending_hits = 34949, Reservation_fails = 9639
L2_cache_bank[4]: Access = 8463455, Miss = 4461617, Miss_rate = 0.527, Pending_hits = 33829, Reservation_fails = 12055
L2_cache_bank[5]: Access = 8441164, Miss = 4489111, Miss_rate = 0.532, Pending_hits = 33610, Reservation_fails = 20932
L2_cache_bank[6]: Access = 8446195, Miss = 4466015, Miss_rate = 0.529, Pending_hits = 35000, Reservation_fails = 15037
L2_cache_bank[7]: Access = 8534348, Miss = 4495617, Miss_rate = 0.527, Pending_hits = 34820, Reservation_fails = 12959
L2_cache_bank[8]: Access = 8467796, Miss = 4473370, Miss_rate = 0.528, Pending_hits = 33621, Reservation_fails = 12313
L2_cache_bank[9]: Access = 8539586, Miss = 4481699, Miss_rate = 0.525, Pending_hits = 33006, Reservation_fails = 10607
L2_cache_bank[10]: Access = 8478372, Miss = 4500210, Miss_rate = 0.531, Pending_hits = 33978, Reservation_fails = 9892
L2_cache_bank[11]: Access = 8445003, Miss = 4488646, Miss_rate = 0.532, Pending_hits = 34154, Reservation_fails = 12717
L2_cache_bank[12]: Access = 8438439, Miss = 4464369, Miss_rate = 0.529, Pending_hits = 33464, Reservation_fails = 11982
L2_cache_bank[13]: Access = 8495336, Miss = 4484652, Miss_rate = 0.528, Pending_hits = 33095, Reservation_fails = 11414
L2_cache_bank[14]: Access = 8505012, Miss = 4479371, Miss_rate = 0.527, Pending_hits = 34285, Reservation_fails = 13524
L2_cache_bank[15]: Access = 8539332, Miss = 4487335, Miss_rate = 0.525, Pending_hits = 34240, Reservation_fails = 15888
L2_cache_bank[16]: Access = 10556017, Miss = 4500465, Miss_rate = 0.426, Pending_hits = 33014, Reservation_fails = 15870
L2_cache_bank[17]: Access = 8489245, Miss = 4490730, Miss_rate = 0.529, Pending_hits = 33217, Reservation_fails = 11083
L2_cache_bank[18]: Access = 8518872, Miss = 4494414, Miss_rate = 0.528, Pending_hits = 34627, Reservation_fails = 18879
L2_cache_bank[19]: Access = 8383128, Miss = 4469033, Miss_rate = 0.533, Pending_hits = 34004, Reservation_fails = 19459
L2_cache_bank[20]: Access = 10822552, Miss = 4483142, Miss_rate = 0.414, Pending_hits = 33707, Reservation_fails = 15099
L2_cache_bank[21]: Access = 8491234, Miss = 4495619, Miss_rate = 0.529, Pending_hits = 34106, Reservation_fails = 16388
L2_cache_bank[22]: Access = 8376625, Miss = 4461359, Miss_rate = 0.533, Pending_hits = 33215, Reservation_fails = 15312
L2_cache_bank[23]: Access = 8393773, Miss = 4443515, Miss_rate = 0.529, Pending_hits = 32000, Reservation_fails = 12272
L2_total_cache_accesses = 207660626
L2_total_cache_misses = 107552995
L2_total_cache_miss_rate = 0.5179
L2_total_cache_pending_hits = 813487
L2_total_cache_reservation_fails = 338682
L2_total_cache_breakdown:
	L2_cache_stats_breakdown[GLOBAL_ACC_R][HIT] = 92729801
	L2_cache_stats_breakdown[GLOBAL_ACC_R][HIT_RESERVED] = 813102
	L2_cache_stats_breakdown[GLOBAL_ACC_R][MISS] = 78428612
	L2_cache_stats_breakdown[GLOBAL_ACC_R][RESERVATION_FAIL] = 338682
	L2_cache_stats_breakdown[GLOBAL_ACC_R][SECTOR_MISS] = 24802356
	L2_cache_stats_breakdown[GLOBAL_ACC_R][MSHR_HIT] = 813104
	L2_cache_stats_breakdown[LOCAL_ACC_R][HIT] = 0
	L2_cache_stats_breakdown[LOCAL_ACC_R][HIT_RESERVED] = 0
	L2_cache_stats_breakdown[LOCAL_ACC_R][MISS] = 0
	L2_cache_stats_breakdown[LOCAL_ACC_R][RESERVATION_FAIL] = 0
	L2_cache_stats_breakdown[LOCAL_ACC_R][SECTOR_MISS] = 0
	L2_cache_stats_breakdown[LOCAL_ACC_R][MSHR_HIT] = 0
	L2_cache_stats_breakdown[CONST_ACC_R][HIT] = 0
	L2_cache_stats_breakdown[CONST_ACC_R][HIT_RESERVED] = 0
	L2_cache_stats_breakdown[CONST_ACC_R][MISS] = 0
	L2_cache_stats_breakdown[CONST_ACC_R][RESERVATION_FAIL] = 0
	L2_cache_stats_breakdown[CONST_ACC_R][SECTOR_MISS] = 0
	L2_cache_stats_breakdown[CONST_ACC_R][MSHR_HIT] = 0
	L2_cache_stats_breakdown[TEXTURE_ACC_R][HIT] = 0
	L2_cache_stats_breakdown[TEXTURE_ACC_R][HIT_RESERVED] = 0
	L2_cache_stats_breakdown[TEXTURE_ACC_R][MISS] = 0
	L2_cache_stats_breakdown[TEXTURE_ACC_R][RESERVATION_FAIL] = 0
	L2_cache_stats_breakdown[TEXTURE_ACC_R][SECTOR_MISS] = 0
	L2_cache_stats_breakdown[TEXTURE_ACC_R][MSHR_HIT] = 0
	L2_cache_stats_breakdown[GLOBAL_ACC_W][HIT] = 6564343
	L2_cache_stats_breakdown[GLOBAL_ACC_W][HIT_RESERVED] = 385
	L2_cache_stats_breakdown[GLOBAL_ACC_W][MISS] = 2820985
	L2_cache_stats_breakdown[GLOBAL_ACC_W][RESERVATION_FAIL] = 0
	L2_cache_stats_breakdown[GLOBAL_ACC_W][SECTOR_MISS] = 1501042
	L2_cache_stats_breakdown[GLOBAL_ACC_W][MSHR_HIT] = 0
	L2_cache_stats_breakdown[LOCAL_ACC_W][HIT] = 0
	L2_cache_stats_breakdown[LOCAL_ACC_W][HIT_RESERVED] = 0
	L2_cache_stats_breakdown[LOCAL_ACC_W][MISS] = 0
	L2_cache_stats_breakdown[LOCAL_ACC_W][RESERVATION_FAIL] = 0
	L2_cache_stats_breakdown[LOCAL_ACC_W][SECTOR_MISS] = 0
	L2_cache_stats_breakdown[LOCAL_ACC_W][MSHR_HIT] = 0
	L2_cache_stats_breakdown[L1_WRBK_ACC][HIT] = 0
	L2_cache_stats_breakdown[L1_WRBK_ACC][HIT_RESERVED] = 0
	L2_cache_stats_breakdown[L1_WRBK_ACC][MISS] = 0
	L2_cache_stats_breakdown[L1_WRBK_ACC][RESERVATION_FAIL] = 0
	L2_cache_stats_breakdown[L1_WRBK_ACC][SECTOR_MISS] = 0
	L2_cache_stats_breakdown[L1_WRBK_ACC][MSHR_HIT] = 0
	L2_cache_stats_breakdown[L2_WRBK_ACC][HIT] = 0
	L2_cache_stats_breakdown[L2_WRBK_ACC][HIT_RESERVED] = 0
	L2_cache_stats_breakdown[L2_WRBK_ACC][MISS] = 0
	L2_cache_stats_breakdown[L2_WRBK_ACC][RESERVATION_FAIL] = 0
	L2_cache_stats_breakdown[L2_WRBK_ACC][SECTOR_MISS] = 0
	L2_cache_stats_breakdown[L2_WRBK_ACC][MSHR_HIT] = 0
	L2_cache_stats_breakdown[INST_ACC_R][HIT] = 0
	L2_cache_stats_breakdown[INST_ACC_R][HIT_RESERVED] = 0
	L2_cache_stats_breakdown[INST_ACC_R][MISS] = 0
	L2_cache_stats_breakdown[INST_ACC_R][RESERVATION_FAIL] = 0
	L2_cache_stats_breakdown[INST_ACC_R][SECTOR_MISS] = 0
	L2_cache_stats_breakdown[INST_ACC_R][MSHR_HIT] = 0
	L2_cache_stats_breakdown[L1_WR_ALLOC_R][HIT] = 0
	L2_cache_stats_breakdown[L1_WR_ALLOC_R][HIT_RESERVED] = 0
	L2_cache_stats_breakdown[L1_WR_ALLOC_R][MISS] = 0
	L2_cache_stats_breakdown[L1_WR_ALLOC_R][RESERVATION_FAIL] = 0
	L2_cache_stats_breakdown[L1_WR_ALLOC_R][SECTOR_MISS] = 0
	L2_cache_stats_breakdown[L1_WR_ALLOC_R][MSHR_HIT] = 0
	L2_cache_stats_breakdown[L2_WR_ALLOC_R][HIT] = 0
	L2_cache_stats_breakdown[L2_WR_ALLOC_R][HIT_RESERVED] = 0
	L2_cache_stats_breakdown[L2_WR_ALLOC_R][MISS] = 0
	L2_cache_stats_breakdown[L2_WR_ALLOC_R][RESERVATION_FAIL] = 0
	L2_cache_stats_breakdown[L2_WR_ALLOC_R][SECTOR_MISS] = 0
	L2_cache_stats_breakdown[L2_WR_ALLOC_R][MSHR_HIT] = 0
	L2_cache_stats_breakdown[GLOBAL_ACC_R][TOTAL_ACCESS] = 196773871
	L2_cache_stats_breakdown[GLOBAL_ACC_W][TOTAL_ACCESS] = 10886755
L2_total_cache_reservation_fail_breakdown:
	L2_cache_stats_fail_breakdown[GLOBAL_ACC_R][LINE_ALLOC_FAIL] = 147
	L2_cache_stats_fail_breakdown[GLOBAL_ACC_R][MISS_QUEUE_FULL] = 359
	L2_cache_stats_fail_breakdown[GLOBAL_ACC_R][MSHR_ENRTY_FAIL] = 21565
	L2_cache_stats_fail_breakdown[GLOBAL_ACC_R][MSHR_MERGE_ENRTY_FAIL] = 316611
L2_cache_data_port_util = 0.064
L2_cache_fill_port_util = 0.066

icnt_total_pkts_mem_to_simt=207660626
icnt_total_pkts_simt_to_mem=207660626
LD_mem_lat_dist  0 0 0 0 0 0 0 0 0 0 0 0 0 0 0 0 0 0 0 0 0 0 0 0 0 0 0
ST_mem_lat_dist  0 0 0 0 0 0 0 0 0 0 0 0 0 0 0 0 0 0 0 0 0 0 0 0 0 0 0
----------------------------Interconnect-DETAILS--------------------------------
Req_Network_injected_packets_num = 207660626
Req_Network_cycles = 65654004
Req_Network_injected_packets_per_cycle =       3.1630 
Req_Network_conflicts_per_cycle =       1.1198
Req_Network_conflicts_per_cycle_util =       1.5498
Req_Bank_Level_Parallism =       4.3773
Req_Network_in_buffer_full_per_cycle =       0.0000
Req_Network_in_buffer_avg_util =       2.7355
Req_Network_out_buffer_full_per_cycle =       0.0276
Req_Network_out_buffer_avg_util =       2.8273

Reply_Network_injected_packets_num = 207660626
Reply_Network_cycles = 65654004
Reply_Network_injected_packets_per_cycle =        3.1630
Reply_Network_conflicts_per_cycle =        1.4762
Reply_Network_conflicts_per_cycle_util =       2.0405
Reply_Bank_Level_Parallism =       4.3719
Reply_Network_in_buffer_full_per_cycle =       0.0000
Reply_Network_in_buffer_avg_util =       0.1316
Reply_Network_out_buffer_full_per_cycle =       0.0000
Reply_Network_out_buffer_avg_util =       0.1054
----------------------------END-of-Interconnect-DETAILS-------------------------


gpgpu_simulation_time = 3 days, 17 hrs, 55 min, 18 sec (323718 sec)
gpgpu_simulation_rate = 4685 (inst/sec)
gpgpu_simulation_rate = 202 (cycle/sec)
gpgpu_silicon_slowdown = 6757425x
GPGPU-Sim PTX: Setting up arguments for 4 bytes starting at 0x7ffcbbbd8c7c..
GPGPU-Sim PTX: Setting up arguments for 8 bytes starting at 0x7ffcbbbd8c70..
GPGPU-Sim PTX: Setting up arguments for 8 bytes starting at 0x7ffcbbbd8c68..
GPGPU-Sim PTX: Setting up arguments for 8 bytes starting at 0x7ffcbbbd8c60..
GPGPU-Sim PTX: Setting up arguments for 8 bytes starting at 0x7ffcbbbd8c58..
GPGPU-Sim PTX: Setting up arguments for 8 bytes starting at 0x7ffcbbbd8c50..
GPGPU-Sim PTX: Setting up arguments for 4 bytes starting at 0x7ffcbbbd8d10..
GPGPU-Sim PTX: Setting up arguments for 8 bytes starting at 0x7ffcbbbd8c48..
GPGPU-Sim PTX: Setting up arguments for 8 bytes starting at 0x7ffcbbbd8c40..

GPGPU-Sim PTX: cudaLaunch for 0x0x56322c1f853a (mode=performance simulation) on stream 0
GPGPU-Sim PTX: PDOM analysis already done for _Z10bc_reverseiPKmPKiS2_S2_S2_iPfS3_ 
GPGPU-Sim PTX: pushing kernel '_Z10bc_reverseiPKmPKiS2_S2_S2_iPfS3_' to stream 0, gridDim= (4590,1,1) blockDim = (256,1,1) 
GPGPU-Sim uArch: Shader 20 bind to kernel 43 '_Z10bc_reverseiPKmPKiS2_S2_S2_iPfS3_'
GPGPU-Sim: Reconfigure L1 cache to 64KB
GPGPU-Sim uArch: Shader 21 bind to kernel 43 '_Z10bc_reverseiPKmPKiS2_S2_S2_iPfS3_'
GPGPU-Sim uArch: Shader 22 bind to kernel 43 '_Z10bc_reverseiPKmPKiS2_S2_S2_iPfS3_'
GPGPU-Sim uArch: Shader 23 bind to kernel 43 '_Z10bc_reverseiPKmPKiS2_S2_S2_iPfS3_'
GPGPU-Sim uArch: Shader 24 bind to kernel 43 '_Z10bc_reverseiPKmPKiS2_S2_S2_iPfS3_'
GPGPU-Sim uArch: Shader 25 bind to kernel 43 '_Z10bc_reverseiPKmPKiS2_S2_S2_iPfS3_'
GPGPU-Sim uArch: Shader 26 bind to kernel 43 '_Z10bc_reverseiPKmPKiS2_S2_S2_iPfS3_'
GPGPU-Sim uArch: Shader 27 bind to kernel 43 '_Z10bc_reverseiPKmPKiS2_S2_S2_iPfS3_'
GPGPU-Sim uArch: Shader 28 bind to kernel 43 '_Z10bc_reverseiPKmPKiS2_S2_S2_iPfS3_'
GPGPU-Sim uArch: Shader 29 bind to kernel 43 '_Z10bc_reverseiPKmPKiS2_S2_S2_iPfS3_'
GPGPU-Sim uArch: Shader 0 bind to kernel 43 '_Z10bc_reverseiPKmPKiS2_S2_S2_iPfS3_'
GPGPU-Sim uArch: Shader 1 bind to kernel 43 '_Z10bc_reverseiPKmPKiS2_S2_S2_iPfS3_'
GPGPU-Sim uArch: Shader 2 bind to kernel 43 '_Z10bc_reverseiPKmPKiS2_S2_S2_iPfS3_'
GPGPU-Sim uArch: Shader 3 bind to kernel 43 '_Z10bc_reverseiPKmPKiS2_S2_S2_iPfS3_'
GPGPU-Sim uArch: Shader 4 bind to kernel 43 '_Z10bc_reverseiPKmPKiS2_S2_S2_iPfS3_'
GPGPU-Sim uArch: Shader 5 bind to kernel 43 '_Z10bc_reverseiPKmPKiS2_S2_S2_iPfS3_'
GPGPU-Sim uArch: Shader 6 bind to kernel 43 '_Z10bc_reverseiPKmPKiS2_S2_S2_iPfS3_'
GPGPU-Sim uArch: Shader 7 bind to kernel 43 '_Z10bc_reverseiPKmPKiS2_S2_S2_iPfS3_'
GPGPU-Sim uArch: Shader 8 bind to kernel 43 '_Z10bc_reverseiPKmPKiS2_S2_S2_iPfS3_'
GPGPU-Sim uArch: Shader 9 bind to kernel 43 '_Z10bc_reverseiPKmPKiS2_S2_S2_iPfS3_'
GPGPU-Sim uArch: Shader 10 bind to kernel 43 '_Z10bc_reverseiPKmPKiS2_S2_S2_iPfS3_'
GPGPU-Sim uArch: Shader 11 bind to kernel 43 '_Z10bc_reverseiPKmPKiS2_S2_S2_iPfS3_'
GPGPU-Sim uArch: Shader 12 bind to kernel 43 '_Z10bc_reverseiPKmPKiS2_S2_S2_iPfS3_'
GPGPU-Sim uArch: Shader 13 bind to kernel 43 '_Z10bc_reverseiPKmPKiS2_S2_S2_iPfS3_'
GPGPU-Sim uArch: Shader 14 bind to kernel 43 '_Z10bc_reverseiPKmPKiS2_S2_S2_iPfS3_'
GPGPU-Sim uArch: Shader 15 bind to kernel 43 '_Z10bc_reverseiPKmPKiS2_S2_S2_iPfS3_'
GPGPU-Sim uArch: Shader 16 bind to kernel 43 '_Z10bc_reverseiPKmPKiS2_S2_S2_iPfS3_'
GPGPU-Sim uArch: Shader 17 bind to kernel 43 '_Z10bc_reverseiPKmPKiS2_S2_S2_iPfS3_'
GPGPU-Sim uArch: Shader 18 bind to kernel 43 '_Z10bc_reverseiPKmPKiS2_S2_S2_iPfS3_'
GPGPU-Sim uArch: Shader 19 bind to kernel 43 '_Z10bc_reverseiPKmPKiS2_S2_S2_iPfS3_'
