

        *** GPGPU-Sim Simulator Version 4.2.0  [build gpgpu-sim_git-commit-5e9d31b8132651796656877ecb58fde27177ba7a_modified_315.0] ***


GPGPU-Sim PTX: simulation mode 0 (can change with PTX_SIM_MODE_FUNC environment variable:
               1=functional simulation only, 0=detailed performance simulator)
GPGPU-Sim PTX: overriding embedded ptx with ptx file (PTX_SIM_USE_PTX_FILE is set)
GPGPU-Sim: Configuration options:

-save_embedded_ptx                      0 # saves ptx files embedded in binary as <n>.ptx
-keep                                   0 # keep intermediate files created by GPGPU-Sim when interfacing with external programs
-gpgpu_ptx_save_converted_ptxplus                    0 # Saved converted ptxplus to a file
-gpgpu_occupancy_sm_number                   75 # The SM number to pass to ptxas when getting register usage for computing GPU occupancy. This parameter is required in the config.
-ptx_opcode_latency_int           4,4,4,4,21 # Opcode latencies for integers <ADD,MAX,MUL,MAD,DIV,SHFL>Default 1,1,19,25,145,32
-ptx_opcode_latency_fp           4,4,4,4,39 # Opcode latencies for single precision floating points <ADD,MAX,MUL,MAD,DIV>Default 1,1,1,1,30
-ptx_opcode_latency_dp      64,64,64,64,330 # Opcode latencies for double precision floating points <ADD,MAX,MUL,MAD,DIV>Default 8,8,8,8,335
-ptx_opcode_latency_sfu                   21 # Opcode latencies for SFU instructionsDefault 8
-ptx_opcode_latency_tesnor                   64 # Opcode latencies for Tensor instructionsDefault 64
-ptx_opcode_initiation_int            2,2,2,2,2 # Opcode initiation intervals for integers <ADD,MAX,MUL,MAD,DIV,SHFL>Default 1,1,4,4,32,4
-ptx_opcode_initiation_fp            2,2,2,2,4 # Opcode initiation intervals for single precision floating points <ADD,MAX,MUL,MAD,DIV>Default 1,1,1,1,5
-ptx_opcode_initiation_dp      64,64,64,64,130 # Opcode initiation intervals for double precision floating points <ADD,MAX,MUL,MAD,DIV>Default 8,8,8,8,130
-ptx_opcode_initiation_sfu                    8 # Opcode initiation intervals for sfu instructionsDefault 8
-ptx_opcode_initiation_tensor                   64 # Opcode initiation intervals for tensor instructionsDefault 64
-cdp_latency         7200,8000,100,12000,1600 # CDP API latency <cudaStreamCreateWithFlags, cudaGetParameterBufferV2_init_perWarp, cudaGetParameterBufferV2_perKernel, cudaLaunchDeviceV2_init_perWarp, cudaLaunchDevicV2_perKernel>Default 7200,8000,100,12000,1600
-network_mode                           2 # Interconnection network mode
-inter_config_file                   mesh # Interconnection network config file
-icnt_in_buffer_limit                  512 # in_buffer_limit
-icnt_out_buffer_limit                  512 # out_buffer_limit
-icnt_subnets                           2 # subnets
-icnt_arbiter_algo                      1 # arbiter_algo
-icnt_verbose                           0 # inct_verbose
-icnt_grant_cycles                      1 # grant_cycles
-gpgpu_ptx_use_cuobjdump                    1 # Use cuobjdump to extract ptx and sass from binaries
-gpgpu_experimental_lib_support                    0 # Try to extract code from cuda libraries [Broken because of unknown cudaGetExportTable]
-checkpoint_option                      0 #  checkpointing flag (0 = no checkpoint)
-checkpoint_kernel                      1 #  checkpointing during execution of which kernel (1- 1st kernel)
-checkpoint_CTA                         0 #  checkpointing after # of CTA (< less than total CTA)
-resume_option                          0 #  resume flag (0 = no resume)
-resume_kernel                          0 #  Resume from which kernel (1= 1st kernel)
-resume_CTA                             0 #  resume from which CTA 
-checkpoint_CTA_t                       0 #  resume from which CTA 
-checkpoint_insn_Y                      0 #  resume from which CTA 
-gpgpu_ptx_convert_to_ptxplus                    0 # Convert SASS (native ISA) to ptxplus and run ptxplus
-gpgpu_ptx_force_max_capability                   75 # Force maximum compute capability
-gpgpu_ptx_inst_debug_to_file                    0 # Dump executed instructions' debug information to file
-gpgpu_ptx_inst_debug_file       inst_debug.txt # Executed instructions' debug output file
-gpgpu_ptx_inst_debug_thread_uid                    1 # Thread UID for executed instructions' debug output
-gpgpu_simd_model                       1 # 1 = post-dominator
-gpgpu_shader_core_pipeline              1024:32 # shader core pipeline config, i.e., {<nthread>:<warpsize>}
-gpgpu_tex_cache:l1  N:4:128:256,L:R:m:N:L,T:512:8,128:2 # per-shader L1 texture cache  (READ-ONLY) config  {<nsets>:<bsize>:<assoc>,<rep>:<wr>:<alloc>:<wr_alloc>,<mshr>:<N>:<merge>,<mq>:<rf>}
-gpgpu_const_cache:l1 N:128:64:8,L:R:f:N:L,S:2:64,4 # per-shader L1 constant memory cache  (READ-ONLY) config  {<nsets>:<bsize>:<assoc>,<rep>:<wr>:<alloc>:<wr_alloc>,<mshr>:<N>:<merge>,<mq>} 
-gpgpu_cache:il1     N:64:128:16,L:R:f:N:L,S:2:48,4 # shader L1 instruction cache config  {<nsets>:<bsize>:<assoc>,<rep>:<wr>:<alloc>:<wr_alloc>,<mshr>:<N>:<merge>,<mq>} 
-gpgpu_cache:dl1     S:4:128:64,L:T:m:L:L,A:256:32,16:0,32 # per-shader L1 data cache config  {<nsets>:<bsize>:<assoc>,<rep>:<wr>:<alloc>:<wr_alloc>,<mshr>:<N>:<merge>,<mq> | none}
-gpgpu_l1_cache_write_ratio                   25 # L1D write ratio
-gpgpu_l1_banks                         4 # The number of L1 cache banks
-gpgpu_l1_banks_byte_interleaving                   32 # l1 banks byte interleaving granularity
-gpgpu_l1_banks_hashing_function                    0 # l1 banks hashing function
-gpgpu_l1_latency                      32 # L1 Hit Latency
-gpgpu_smem_latency                    30 # smem Latency
-gpgpu_cache:dl1PrefL1                 none # per-shader L1 data cache config  {<nsets>:<bsize>:<assoc>,<rep>:<wr>:<alloc>:<wr_alloc>,<mshr>:<N>:<merge>,<mq> | none}
-gpgpu_cache:dl1PrefShared                 none # per-shader L1 data cache config  {<nsets>:<bsize>:<assoc>,<rep>:<wr>:<alloc>:<wr_alloc>,<mshr>:<N>:<merge>,<mq> | none}
-gpgpu_gmem_skip_L1D                    0 # global memory access skip L1D cache (implements -Xptxas -dlcm=cg, default=no skip)
-gpgpu_perfect_mem                      0 # enable perfect memory mode (no cache miss)
-n_regfile_gating_group                    4 # group of lanes that should be read/written together)
-gpgpu_clock_gated_reg_file                    0 # enable clock gated reg file for power calculations
-gpgpu_clock_gated_lanes                    0 # enable clock gated lanes for power calculations
-gpgpu_shader_registers                65536 # Number of registers per shader core. Limits number of concurrent CTAs. (default 8192)
-gpgpu_registers_per_block                65536 # Maximum number of registers per CTA. (default 8192)
-gpgpu_ignore_resources_limitation                    0 # gpgpu_ignore_resources_limitation (default 0)
-gpgpu_shader_cta                      16 # Maximum number of concurrent CTAs in shader (default 32)
-gpgpu_num_cta_barriers                   16 # Maximum number of named barriers per CTA (default 16)
-gpgpu_n_clusters                      30 # number of processing clusters
-gpgpu_n_cores_per_cluster                    1 # number of simd cores per cluster
-gpgpu_n_cluster_ejection_buffer_size                   32 # number of packets in ejection buffer
-gpgpu_n_ldst_response_buffer_size                    2 # number of response packets in ld/st unit ejection buffer
-gpgpu_shmem_per_block                49152 # Size of shared memory per thread block or CTA (default 48kB)
-gpgpu_shmem_size                   65536 # Size of shared memory per shader core (default 16kB)
-gpgpu_shmem_option                 32,64 # Option list of shared memory sizes
-gpgpu_unified_l1d_size                   96 # Size of unified data cache(L1D + shared memory) in KB
-gpgpu_adaptive_cache_config                    1 # adaptive_cache_config
-gpgpu_shmem_sizeDefault                65536 # Size of shared memory per shader core (default 16kB)
-gpgpu_shmem_size_PrefL1                16384 # Size of shared memory per shader core (default 16kB)
-gpgpu_shmem_size_PrefShared                16384 # Size of shared memory per shader core (default 16kB)
-gpgpu_shmem_num_banks                   32 # Number of banks in the shared memory in each shader core (default 16)
-gpgpu_shmem_limited_broadcast                    0 # Limit shared memory to do one broadcast per cycle (default on)
-gpgpu_shmem_warp_parts                    1 # Number of portions a warp is divided into for shared memory bank conflict check 
-gpgpu_mem_unit_ports                    1 # The number of memory transactions allowed per core cycle
-gpgpu_shmem_warp_parts                    1 # Number of portions a warp is divided into for shared memory bank conflict check 
-gpgpu_warpdistro_shader                   -1 # Specify which shader core to collect the warp size distribution from
-gpgpu_warp_issue_shader                    0 # Specify which shader core to collect the warp issue distribution from
-gpgpu_local_mem_map                    1 # Mapping from local memory space address to simulated GPU physical address space (default = enabled)
-gpgpu_num_reg_banks                    8 # Number of register banks (default = 8)
-gpgpu_reg_bank_use_warp_id                    0 # Use warp ID in mapping registers to banks (default = off)
-gpgpu_sub_core_model                    1 # Sub Core Volta/Pascal model (default = off)
-gpgpu_enable_specialized_operand_collector                    0 # enable_specialized_operand_collector
-gpgpu_operand_collector_num_units_sp                    4 # number of collector units (default = 4)
-gpgpu_operand_collector_num_units_dp                    0 # number of collector units (default = 0)
-gpgpu_operand_collector_num_units_sfu                    4 # number of collector units (default = 4)
-gpgpu_operand_collector_num_units_int                    0 # number of collector units (default = 0)
-gpgpu_operand_collector_num_units_tensor_core                    4 # number of collector units (default = 4)
-gpgpu_operand_collector_num_units_mem                    2 # number of collector units (default = 2)
-gpgpu_operand_collector_num_units_gen                    8 # number of collector units (default = 0)
-gpgpu_operand_collector_num_in_ports_sp                    1 # number of collector unit in ports (default = 1)
-gpgpu_operand_collector_num_in_ports_dp                    0 # number of collector unit in ports (default = 0)
-gpgpu_operand_collector_num_in_ports_sfu                    1 # number of collector unit in ports (default = 1)
-gpgpu_operand_collector_num_in_ports_int                    0 # number of collector unit in ports (default = 0)
-gpgpu_operand_collector_num_in_ports_tensor_core                    1 # number of collector unit in ports (default = 1)
-gpgpu_operand_collector_num_in_ports_mem                    1 # number of collector unit in ports (default = 1)
-gpgpu_operand_collector_num_in_ports_gen                    8 # number of collector unit in ports (default = 0)
-gpgpu_operand_collector_num_out_ports_sp                    1 # number of collector unit in ports (default = 1)
-gpgpu_operand_collector_num_out_ports_dp                    0 # number of collector unit in ports (default = 0)
-gpgpu_operand_collector_num_out_ports_sfu                    1 # number of collector unit in ports (default = 1)
-gpgpu_operand_collector_num_out_ports_int                    0 # number of collector unit in ports (default = 0)
-gpgpu_operand_collector_num_out_ports_tensor_core                    1 # number of collector unit in ports (default = 1)
-gpgpu_operand_collector_num_out_ports_mem                    1 # number of collector unit in ports (default = 1)
-gpgpu_operand_collector_num_out_ports_gen                    8 # number of collector unit in ports (default = 0)
-gpgpu_coalesce_arch                   75 # Coalescing arch (GT200 = 13, Fermi = 20)
-gpgpu_num_sched_per_core                    4 # Number of warp schedulers per core
-gpgpu_max_insn_issue_per_warp                    1 # Max number of instructions that can be issued per warp in one cycle by scheduler (either 1 or 2)
-gpgpu_dual_issue_diff_exec_units                    1 # should dual issue use two different execution unit resources (Default = 1)
-gpgpu_simt_core_sim_order                    1 # Select the simulation order of cores in a cluster (0=Fix, 1=Round-Robin)
-gpgpu_pipeline_widths 4,4,4,4,4,4,4,4,4,4,8,4,4 # Pipeline widths ID_OC_SP,ID_OC_DP,ID_OC_INT,ID_OC_SFU,ID_OC_MEM,OC_EX_SP,OC_EX_DP,OC_EX_INT,OC_EX_SFU,OC_EX_MEM,EX_WB,ID_OC_TENSOR_CORE,OC_EX_TENSOR_CORE
-gpgpu_tensor_core_avail                    1 # Tensor Core Available (default=0)
-gpgpu_num_sp_units                     4 # Number of SP units (default=1)
-gpgpu_num_dp_units                     4 # Number of DP units (default=0)
-gpgpu_num_int_units                    4 # Number of INT units (default=0)
-gpgpu_num_sfu_units                    4 # Number of SF units (default=1)
-gpgpu_num_tensor_core_units                    4 # Number of tensor_core units (default=1)
-gpgpu_num_mem_units                    1 # Number if ldst units (default=1) WARNING: not hooked up to anything
-gpgpu_scheduler                      lrr # Scheduler configuration: < lrr | gto | two_level_active > If two_level_active:<num_active_warps>:<inner_prioritization>:<outer_prioritization>For complete list of prioritization values see shader.h enum scheduler_prioritization_typeDefault: gto
-gpgpu_concurrent_kernel_sm                    0 # Support concurrent kernels on a SM (default = disabled)
-gpgpu_perfect_inst_const_cache                    1 # perfect inst and const cache mode, so all inst and const hits in the cache(default = disabled)
-gpgpu_inst_fetch_throughput                    4 # the number of fetched intruction per warp each cycle
-gpgpu_reg_file_port_throughput                    2 # the number ports of the register file
-specialized_unit_1         0,4,4,4,4,BRA # specialized unit config {<enabled>,<num_units>:<latency>:<initiation>,<ID_OC_SPEC>:<OC_EX_SPEC>,<NAME>}
-specialized_unit_2         0,4,4,4,4,BRA # specialized unit config {<enabled>,<num_units>:<latency>:<initiation>,<ID_OC_SPEC>:<OC_EX_SPEC>,<NAME>}
-specialized_unit_3         0,4,4,4,4,BRA # specialized unit config {<enabled>,<num_units>:<latency>:<initiation>,<ID_OC_SPEC>:<OC_EX_SPEC>,<NAME>}
-specialized_unit_4         0,4,4,4,4,BRA # specialized unit config {<enabled>,<num_units>:<latency>:<initiation>,<ID_OC_SPEC>:<OC_EX_SPEC>,<NAME>}
-specialized_unit_5         0,4,4,4,4,BRA # specialized unit config {<enabled>,<num_units>:<latency>:<initiation>,<ID_OC_SPEC>:<OC_EX_SPEC>,<NAME>}
-specialized_unit_6         0,4,4,4,4,BRA # specialized unit config {<enabled>,<num_units>:<latency>:<initiation>,<ID_OC_SPEC>:<OC_EX_SPEC>,<NAME>}
-specialized_unit_7         0,4,4,4,4,BRA # specialized unit config {<enabled>,<num_units>:<latency>:<initiation>,<ID_OC_SPEC>:<OC_EX_SPEC>,<NAME>}
-specialized_unit_8         0,4,4,4,4,BRA # specialized unit config {<enabled>,<num_units>:<latency>:<initiation>,<ID_OC_SPEC>:<OC_EX_SPEC>,<NAME>}
-gpgpu_perf_sim_memcpy                    1 # Fill the L2 cache on memcpy
-gpgpu_simple_dram_model                    0 # simple_dram_model with fixed latency and BW
-gpgpu_dram_scheduler                    1 # 0 = fifo, 1 = FR-FCFS (defaul)
-gpgpu_dram_partition_queues          64:64:64:64 # i2$:$2d:d2$:$2i
-l2_ideal                               0 # Use a ideal L2 cache that always hit
-gpgpu_cache:dl2     S:64:128:16,L:B:m:L:P,A:192:4,32:0,32 # unified banked L2 data cache config  {<nsets>:<bsize>:<assoc>,<rep>:<wr>:<alloc>:<wr_alloc>,<mshr>:<N>:<merge>,<mq>}
-gpgpu_cache:dl2_texture_only                    0 # L2 cache used for texture only
-gpgpu_n_mem                           12 # number of memory modules (e.g. memory controllers) in gpu
-gpgpu_n_sub_partition_per_mchannel                    2 # number of memory subpartition in each memory module
-gpgpu_n_mem_per_ctrlr                    1 # number of memory chips per memory controller
-gpgpu_memlatency_stat                   14 # track and display latency statistics 0x2 enables MC, 0x4 enables queue logs
-gpgpu_frfcfs_dram_sched_queue_size                   64 # 0 = unlimited (default); # entries per chip
-gpgpu_dram_return_queue_size                  192 # 0 = unlimited (default); # entries per chip
-gpgpu_dram_buswidth                    2 # default = 4 bytes (8 bytes per cycle at DDR)
-gpgpu_dram_burst_length                   16 # Burst length of each DRAM request (default = 4 data bus cycle)
-dram_data_command_freq_ratio                    4 # Frequency ratio between DRAM data bus and command bus (default = 2 times, i.e. DDR)
-gpgpu_dram_timing_opt nbk=16:CCD=4:RRD=12:RCD=24:RAS=55:RP=24:RC=78:CL=24:WL=8:CDLR=10:WR=24:nbkgrp=4:CCDL=6:RTPL=4 # DRAM timing parameters = {nbk:tCCD:tRRD:tRCD:tRAS:tRP:tRC:CL:WL:tCDLR:tWR:nbkgrp:tCCDL:tRTPL}
-gpgpu_l2_rop_latency                  194 # ROP queue latency (default 85)
-dram_latency                          96 # DRAM latency (default 30)
-dram_dual_bus_interface                    0 # dual_bus_interface (default = 0) 
-dram_bnk_indexing_policy                    0 # dram_bnk_indexing_policy (0 = normal indexing, 1 = Xoring with the higher bits) (Default = 0)
-dram_bnkgrp_indexing_policy                    1 # dram_bnkgrp_indexing_policy (0 = take higher bits, 1 = take lower bits) (Default = 0)
-dram_seperate_write_queue_enable                    0 # Seperate_Write_Queue_Enable
-dram_write_queue_size             32:28:16 # Write_Queue_Size
-dram_elimnate_rw_turnaround                    0 # elimnate_rw_turnaround i.e set tWTR and tRTW = 0
-icnt_flit_size                        40 # icnt_flit_size
-icnt_flit_size                        40 # icnt_flit_size
-mem_profiler                           0 # memory access runtime profiling (0 = not enabled)
-gpgpu_mem_addr_mapping dramid@8;00000000.00000000.00000000.00000000.0000RRRR.RRRRRRRR.RBBBCCCC.BCCSSSSS # mapping memory address to dram model {dramid@<start bit>;<memory address map>}
-gpgpu_mem_addr_test                    0 # run sweep test to check address mapping for aliased address
-gpgpu_mem_address_mask                    1 # 0 = old addressing mask, 1 = new addressing mask, 2 = new add. mask + flipped bank sel and chip sel bits
-gpgpu_memory_partition_indexing                    0 # 0 = no indexing, 1 = bitwise xoring, 2 = IPoly, 3 = custom indexing
-accelwattch_xml_file accelwattch_sass_sim.xml # AccelWattch XML file
-power_simulation_enabled                    1 # Turn on power simulator (1=On, 0=Off)
-power_per_cycle_dump                    1 # Dump detailed power output each cycle
-hw_perf_file_name            hw_perf.csv # Hardware Performance Statistics file
-hw_perf_bench_name    hw_perf_bench_name # Kernel Name in Hardware Performance Statistics file
-power_simulation_mode                    0 # Switch performance counter input for power simulation (0=Sim, 1=HW, 2=HW-Sim Hybrid)
-dvfs_enabled                           1 # Turn on DVFS for power model
-aggregate_power_stats                    0 # Accumulate power across all kernels
-accelwattch_hybrid_perfsim_L1_RH                    0 # Get L1 Read Hits for Accelwattch-Hybrid from Accel-Sim
-accelwattch_hybrid_perfsim_L1_RM                    0 # Get L1 Read Misses for Accelwattch-Hybrid from Accel-Sim
-accelwattch_hybrid_perfsim_L1_WH                    0 # Get L1 Write Hits for Accelwattch-Hybrid from Accel-Sim
-accelwattch_hybrid_perfsim_L1_WM                    0 # Get L1 Write Misses for Accelwattch-Hybrid from Accel-Sim
-accelwattch_hybrid_perfsim_L2_RH                    0 # Get L2 Read Hits for Accelwattch-Hybrid from Accel-Sim
-accelwattch_hybrid_perfsim_L2_RM                    0 # Get L2 Read Misses for Accelwattch-Hybrid from Accel-Sim
-accelwattch_hybrid_perfsim_L2_WH                    0 # Get L2 Write Hits for Accelwattch-Hybrid from Accel-Sim
-accelwattch_hybrid_perfsim_L2_WM                    0 # Get L2 Write Misses for Accelwattch-Hybrid from Accel-Sim
-accelwattch_hybrid_perfsim_CC_ACC                    0 # Get Constant Cache Acesses for Accelwattch-Hybrid from Accel-Sim
-accelwattch_hybrid_perfsim_SHARED_ACC                    0 # Get Shared Memory Acesses for Accelwattch-Hybrid from Accel-Sim
-accelwattch_hybrid_perfsim_DRAM_RD                    0 # Get DRAM Reads for Accelwattch-Hybrid from Accel-Sim
-accelwattch_hybrid_perfsim_DRAM_WR                    0 # Get DRAM Writes for Accelwattch-Hybrid from Accel-Sim
-accelwattch_hybrid_perfsim_NOC                    0 # Get Interconnect Acesses for Accelwattch-Hybrid from Accel-Sim
-accelwattch_hybrid_perfsim_PIPE_DUTY                    0 # Get Pipeline Duty Cycle Acesses for Accelwattch-Hybrid from Accel-Sim
-accelwattch_hybrid_perfsim_NUM_SM_IDLE                    0 # Get Number of Idle SMs for Accelwattch-Hybrid from Accel-Sim
-accelwattch_hybrid_perfsim_CYCLES                    0 # Get Executed Cycles for Accelwattch-Hybrid from Accel-Sim
-accelwattch_hybrid_perfsim_VOLTAGE                    0 # Get Chip Voltage for Accelwattch-Hybrid from Accel-Sim
-power_trace_enabled                    0 # produce a file for the power trace (1=On, 0=Off)
-power_trace_zlevel                     0 # Compression level of the power trace output log (0=no comp, 9=highest)
-steady_power_levels_enabled                    0 # produce a file for the steady power levels (1=On, 0=Off)
-steady_state_definition                  8:4 # allowed deviation:number of samples
-gpgpu_max_cycle                        0 # terminates gpu simulation early (0 = no limit)
-gpgpu_max_insn                         0 # terminates gpu simulation early (0 = no limit)
-gpgpu_max_cta                          0 # terminates gpu simulation early (0 = no limit)
-gpgpu_max_completed_cta                    0 # terminates gpu simulation early (0 = no limit)
-gpgpu_runtime_stat                  1000 # display runtime statistics such as dram utilization {<freq>:<flag>}
-liveness_message_freq                    1 # Minimum number of seconds between simulation liveness messages (0 = always print)
-gpgpu_compute_capability_major                    7 # Major compute capability version number
-gpgpu_compute_capability_minor                    5 # Minor compute capability version number
-gpgpu_flush_l1_cache                    1 # Flush L1 cache at the end of each kernel call
-gpgpu_flush_l2_cache                    0 # Flush L2 cache at the end of each kernel call
-gpgpu_deadlock_detect                    1 # Stop the simulation at deadlock (1=on (default), 0=off)
-gpgpu_ptx_instruction_classification                    0 # if enabled will classify ptx instruction types per kernel (Max 255 kernels now)
-gpgpu_ptx_sim_mode                     0 # Select between Performance (default) or Functional simulation (1)
-gpgpu_clock_domains 1365:1365:1365:3500.5 # Clock Domain Frequencies in MhZ {<Core Clock>:<ICNT Clock>:<L2 Clock>:<DRAM Clock>}
-gpgpu_max_concurrent_kernel                  128 # maximum kernels that can run concurrently on GPU, set this value according to max resident grids for your compute capability
-gpgpu_cflog_interval                    0 # Interval between each snapshot in control flow logger
-visualizer_enabled                     0 # Turn on visualizer output (1=On, 0=Off)
-visualizer_outputfile                 NULL # Specifies the output log file for visualizer
-visualizer_zlevel                      6 # Compression level of the visualizer output log (0=no comp, 9=highest)
-gpgpu_stack_size_limit                 1024 # GPU thread stack size
-gpgpu_heap_size_limit              8388608 # GPU malloc heap size 
-gpgpu_runtime_sync_depth_limit                    2 # GPU device runtime synchronize depth
-gpgpu_runtime_pending_launch_count_limit                 2048 # GPU device runtime pending launch count
-trace_enabled                          0 # Turn on traces
-trace_components                    none # comma seperated list of traces to enable. Complete list found in trace_streams.tup. Default none
-trace_sampling_core                    0 # The core which is printed using CORE_DPRINTF. Default 0
-trace_sampling_memory_partition                   -1 # The memory partition which is printed using MEMPART_DPRINTF. Default -1 (i.e. all)
-enable_ptx_file_line_stats                    1 # Turn on PTX source line statistic profiling. (1 = On)
-ptx_line_stats_filename gpgpu_inst_stats.txt # Output file for PTX source line statistics.
-gpgpu_kernel_launch_latency                 5000 # Kernel launch latency in cycles. Default: 0
-gpgpu_cdp_enabled                      0 # Turn on CDP
-gpgpu_TB_launch_latency                    0 # thread block launch latency in cycles. Default: 0
-mem_runtime_stat                     100 # memory access runtime profiling sampling8d0916fefd6ccd41475d1566102a27b3  /home/pars/Documents/sim_2/bc_topo_base
Extracting PTX file and ptxas options    1: bc_topo_base.1.sm_75.ptx -arch=sm_75
 freq
-L1D_metrics                            0 # memory access runtime profiling for L1 data cache
-IPC_per_prof_interval                    0 # IPC per profiling interval
-instruction_monitor                    0 # Instruction monitor
-noncoal_metrics                        0 # memory access runtime profiling for shared memory
-L2_metrics                             0 # memory access runtime profiling for L2 cache
-DRAM_metrics                           0 # memory access runtime profiling for DRAM
-Shmem_metrics                          0 # memory access runtime profiling for noncoalesced accesses
-store_enable                           0 # Enable stores for memory profiling
-accumulate_stats                       0 # Accumulate stats for the memory profiling
-dump_enable                            0 # Process dump enable flag - (def = 0)
-flush_l1d                              0 # Enable flushings for L1D caches - (default = 0)
-flush_l2                               0 # Enable flushings for L2 caches - (default = 0)
-flush_dram                             0 # Enable flushings for DRAM - (default = 0)
-flush_noncoalesceds                    0 # Enable flushings for non coalesced accesses - (default = 0)
-flush_shmems                           0 # Enable flushings for shared memory accesses - (default = 0)
-error_percentage          21474836480001 # Error percentage for the flushes - (default = 1)
-dump_sampling_cycle       21474836485000 # Dump sampling frequency - (default = 5000)
-flush_acc_type                         2 # Flush access types
-monitor_sampling_cycle                 5000 # Monitoring sampling cycle - (default = 5000)
DRAM Timing Options:
nbk                                    16 # number of banks
CCD                                     4 # column to column delay
RRD                                    12 # minimal delay between activation of rows in different banks
RCD                                    24 # row to column delay
RAS                                    55 # time needed to activate row
RP                                     24 # time needed to precharge (deactivate) row
RC                                     78 # row cycle time
CDLR                                   10 # switching from write to read (changes tWTR)
WR                                     24 # last data-in to row precharge
CL                                     24 # CAS latency
WL                                      8 # Write latency
nbkgrp                                  4 # number of bank groups
CCDL                                    6 # column to column delay between accesses to different bank groups
RTPL                                    4 # read to precharge delay between accesses to different bank groups
Total number of memory sub partition = 24
addr_dec_mask[CHIP]  = 0000000000000000 	high:64 low:0
addr_dec_mask[BK]    = 0000000000007080 	high:15 low:7
addr_dec_mask[ROW]   = 000000000fff8000 	high:28 low:15
addr_dec_mask[COL]   = 0000000000000f7f 	high:12 low:0
addr_dec_mask[BURST] = 000000000000001f 	high:5 low:0
sub_partition_id_mask = 0000000000000080
GPGPU-Sim uArch: clock freqs: 1365000000.000000:1365000000.000000:1365000000.000000:3500500000.000000
GPGPU-Sim uArch: clock periods: 0.00000000073260073260:0.00000000073260073260:0.00000000073260073260:0.00000000028567347522
*** Initializing Memory Statistics ***
GPGPU-Sim uArch: performance model initialization complete.
self exe links to: /home/pars/Documents/sim_2/bc_topo_base
self exe links to: /home/pars/Documents/sim_2/bc_topo_base
11.0
GPGPU-Sim PTX: __cudaRegisterFatBinary, fat_cubin_handle = 1, filename=default
self exe links to: /home/pars/Documents/sim_2/bc_topo_base
Running md5sum using "md5sum /home/pars/Documents/sim_2/bc_topo_base "
self exe links to: /home/pars/Documents/sim_2/bc_topo_base
Extracting specific PTX file named bc_topo_base.1.sm_75.ptx 
GPGPU-Sim PTX: __cudaRegisterFunction _ZN3cub11EmptyKernelIvEEvv : hostFun 0x0x56530df70ffc, fat_cubin_handle = 1
GPGPU-Sim PTX: Parsing bc_topo_base.1.sm_75.ptx
GPGPU-Sim PTX: allocating global region for "_ZN43_INTERNAL_00221b7d_12_topo_base_cu_297024296thrust6system6detail10sequential3seqE" from 0x100 to 0x101 (global memory space)
GPGPU-Sim PTX: allocating global region for "_ZN43_INTERNAL_00221b7d_12_topo_base_cu_297024296thrust6system3cpp3parE" from 0x101 to 0x102 (global memory space)
GPGPU-Sim PTX: allocating global region for "_ZN43_INTERNAL_00221b7d_12_topo_base_cu_297024296thrust8cuda_cub3parE" from 0x102 to 0x103 (global memory space)
GPGPU-Sim PTX: allocating global region for "_ZN43_INTERNAL_00221b7d_12_topo_base_cu_297024296thrust12placeholders2_1E" from 0x103 to 0x104 (global memory space)
GPGPU-Sim PTX: allocating global region for "_ZN43_INTERNAL_00221b7d_12_topo_base_cu_297024296thrust12placeholders2_2E" from 0x104 to 0x105 (global memory space)
GPGPU-Sim PTX: allocating global region for "_ZN43_INTERNAL_00221b7d_12_topo_base_cu_297024296thrust12placeholders2_3E" from 0x105 to 0x106 (global memory space)
GPGPU-Sim PTX: allocating global region for "_ZN43_INTERNAL_00221b7d_12_topo_base_cu_297024296thrust12placeholders2_4E" from 0x106 to 0x107 (global memory space)
GPGPU-Sim PTX: allocating global region for "_ZN43_INTERNAL_00221b7d_12_topo_base_cu_297024296thrust12placeholders2_5E" from 0x107 to 0x108 (global memory space)
GPGPU-Sim PTX: allocating global region for "_ZN43_INTERNAL_00221b7d_12_topo_base_cu_297024296thrust12placeholders2_6E" from 0x108 to 0x109 (global memory space)
GPGPU-Sim PTX: allocating global region for "_ZN43_INTERNAL_00221b7d_12_topo_base_cu_297024296thrust12placeholders2_7E" from 0x109 to 0x10a (global memory space)
GPGPU-Sim PTX: allocating global region for "_ZN43_INTERNAL_00221b7d_12_topo_base_cu_297024296thrust12placeholders2_8E" from 0x10a to 0x10b (global memory space)
GPGPU-Sim PTX: allocating global region for "_ZN43_INTERNAL_00221b7d_12_topo_base_cu_297024296thrust12placeholders2_9E" from 0x10b to 0x10c (global memory space)
GPGPU-Sim PTX: allocating global region for "_ZN43_INTERNAL_00221b7d_12_topo_base_cu_297024296thrust12placeholders3_10E" from 0x10c to 0x10d (global memory space)
GPGPU-Sim PTX: allocating global region for "_ZN43_INTERNAL_00221b7d_12_topo_base_cu_297024296thrust3seqE" from 0x10d to 0x10e (global memory space)
GPGPU-Sim PTX: allocating global region for "_ZN43_INTERNAL_00221b7d_12_topo_base_cu_297024296thrust6deviceE" from 0x10e to 0x10f (global memory space)
GPGPU-Sim PTX: allocating shared region for "_ZN6thrust8cuda_cub4core5shmemE" from 0x0 to 0x0 (shared memory space)
GPGPU-Sim PTX: instruction assembly for function '_Z10initializeiiPfPiS0_S_PbS1_'...   done.
GPGPU-Sim PTX: Warning -- ignoring pragma 'nounroll'
GPGPU-Sim PTX: instruction assembly for function '_Z10bc_forwardiPKmPKiPiS3_iPbS4_S4_S3_S3_i'...   done.
GPGPU-Sim PTX: Warning -- ignoring pragma 'nounroll'
GPGPU-Sim PTX: instruction assembly for function '_Z10bc_reverseiPKmPKiiPiPfS3_S3_iS4_'...   done.
GPGPU-Sim PTX: instruction assembly for function '_Z9bc_updateiPiPb'...   done.
GPGPU-Sim PTX: instruction assembly for function '_Z12bc_normalizeiPff'...   done.
GPGPU-Sim PTX: Warning -- ignoring pragma 'nounroll'
GPGPU-Sim PTX: Warning -- ignoring pragma 'nounroll'
GPGPU-Sim PTX: instruction assembly for function '_ZN6thrust8cuda_cub4core13_kernel_agentINS0_8__reduce11ReduceAgentINS_12zip_iteratorINS_5tupleIPfNS0_19counting_iterator_tIlEENS_9null_typeESA_SA_SA_SA_SA_SA_SA_EEEEPNS6_IflSA_SA_SA_SA_SA_SA_SA_SA_EESD_iNS0_9__extrema9arg_max_fIflNS_4lessIfEEEEEESC_SE_iSJ_EEvT0_T1_T2_T3_'...   done.
GPGPU-Sim PTX: Warning -- ignoring pragma 'nounroll'
GPGPU-Sim PTX: Warning -- ignoring pragma 'nounroll'
GPGPU-Sim PTX: instruction assembly for function '_ZN6thrust8cuda_cub4core13_kernel_agentINS0_8__reduce11ReduceAgentINS_12zip_iteratorINS_5tupleIPfNS0_19counting_iterator_tIlEENS_9null_typeESA_SA_SA_SA_SA_SA_SA_EEEEPNS6_IflSA_SA_SA_SA_SA_SA_SA_SA_EESD_iNS0_9__extrema9arg_max_fIflNS_4lessIfEEEEEESC_SE_iN3cub13GridEvenShareIiEENSL_9GridQueueIjEESJ_EEvT0_T1_T2_T3_T4_T5_'...   done.
GPGPU-Sim PTX: instruction assembly for function '_ZN6thrust8cuda_cub4core13_kernel_agentINS0_8__reduce10DrainAgentIiEEN3cub9GridQueueIjEEiEEvT0_T1_'...   done.
GPGPU-Sim PTX: Warning -- ignoring pragma 'nounroll'
GPGPU-Sim PTX: Warning -- ignoring pragma 'nounroll'
GPGPU-Sim PTX: instruction assembly for function '_ZN6thrust8cuda_cub4core13_kernel_agentINS0_8__reduce11ReduceAgentIPNS_5tupleIflNS_9null_typeES6_S6_S6_S6_S6_S6_S6_EES8_S7_iNS0_9__extrema9arg_max_fIflNS_4lessIfEEEEEES8_S8_iSD_EEvT0_T1_T2_T3_'...   done.
GPGPU-Sim PTX: Warning -- ignoring pragma 'nounroll'
GPGPU-Sim PTX: Warning -- ignoring pragma 'nounroll'
GPGPU-Sim PTX: instruction assembly for function '_ZN6thrust8cuda_cub4core13_kernel_agentINS0_8__reduce11ReduceAgentINS_12zip_iteratorINS_5tupleIPfNS0_19counting_iterator_tIlEENS_9null_typeESA_SA_SA_SA_SA_SA_SA_EEEEPNS6_IflSA_SA_SA_SA_SA_SA_SA_SA_EESD_lNS0_9__extrema9arg_max_fIflNS_4lessIfEEEEEESC_SE_lSJ_EEvT0_T1_T2_T3_'...   done.
GPGPU-Sim PTX: Warning -- ignoring pragma 'nounroll'
GPGPU-Sim PTX: Warning -- ignoring pragma 'nounroll'
GPGPU-Sim PTX: instruction assembly for function '_ZN6thrust8cuda_cub4core13_kernel_agentINS0_8__reduce11ReduceAgentINS_12zip_iteratorINS_5tupleIPfNS0_19counting_iterator_tIlEENS_9null_typeESA_SA_SA_SA_SA_SA_SA_EEEEPNS6_IflSA_SA_SA_SA_SA_SA_SA_SA_EESD_lNS0_9__extrema9arg_max_fIflNS_4lessIfEEEEEESC_SE_lN3cub13GridEvenShareIlEENSL_9GridQueueIyEESJ_EEvT0_T1_T2_T3_T4_T5_'...   done.
GPGPU-Sim PTX: instruction assembly for function '_ZN6thrust8cuda_cub4core13_kernel_agentINS0_8__reduce10DrainAgentIlEEN3cub9GridQueueIyEElEEvT0_T1_'...   done.
GPGPU-Sim PTX: Warning -- ignoring pragma 'nounroll'
GPGPU-Sim PTX: Warning -- ignoring pragma 'nounroll'
GPGPU-Sim PTX: instruction assembly for function '_ZN6thrust8cuda_cub4core13_kernel_agentINS0_8__reduce11ReduceAgentIPNS_5tupleIflNS_9null_typeES6_S6_S6_S6_S6_S6_S6_EES8_S7_lNS0_9__extrema9arg_max_fIflNS_4lessIfEEEEEES8_S8_iSD_EEvT0_T1_T2_T3_'...   done.
GPGPU-Sim PTX: instruction assembly for function '_ZN6thrust8cuda_cub4core13_kernel_agentINS0_14__parallel_for16ParallelForAgentINS0_10for_each_fINS_7pointerINS_5tupleIflNS_9null_typeES8_S8_S8_S8_S8_S8_S8_EENS0_5par_tENS_11use_defaultESB_EENS_6detail16wrapped_functionINSD_23allocator_traits_detail5gozerEvEEEElEESI_lEEvT0_T1_'...   done.
GPGPU-Sim PTX: instruction assembly for function '_ZN6thrust8cuda_cub4core13_kernel_agentINS0_14__parallel_for16ParallelForAgentINS0_20__uninitialized_copy7functorIPNS_5tupleIflNS_9null_typeES8_S8_S8_S8_S8_S8_S8_EENS_7pointerIS9_NS0_5par_tENS_11use_defaultESD_EEEElEESF_lEEvT0_T1_'...   done.
GPGPU-Sim PTX: instruction assembly for function '_ZN6thrust8cuda_cub4core13_kernel_agentINS0_14__parallel_for16ParallelForAgentINS0_11__transform17unary_transform_fIPNS_5tupleIflNS_9null_typeES8_S8_S8_S8_S8_S8_S8_EESA_NS5_14no_stencil_tagENS_8identityIS9_EENS5_21always_true_predicateEEElEESF_lEEvT0_T1_'...   done.
GPGPU-Sim PTX: instruction assembly for function '_ZN3cub11EmptyKernelIvEEvv'...   done.
GPGPU-Sim PTX: finished parsing EMBEDDED .ptx file bc_topo_base.1.sm_75.ptx
GPGPU-Sim PTX: loading globals with explicit initializers... 
GPGPU-Sim PTX: finished loading globals (0 bytes total).
GPGPU-Sim PTX: loading constants with explicit initializers...  done.
GPGPU-Sim PTX: Loading PTXInfo from bc_topo_base.1.sm_75.ptx
GPGPU-Sim PTX: Kernel '_ZN3cub11EmptyKernelIvEEvv' : regs=4, lmem=0, smem=0, cmem=352
GPGPU-Sim PTX: Kernel '_ZN6thrust8cuda_cub4core13_kernel_agentINS0_14__parallel_for16ParallelForAgentINS0_11__transform17unary_transform_fIPNS_5tupleIflNS_9null_typeES8_S8_S8_S8_S8_S8_S8_EESA_NS5_14no_stencil_tagENS_8identityIS9_EENS5_21always_true_predicateEEElEESF_lEEvT0_T1_' : regs=14, lmem=0, smem=0, cmem=384
GPGPU-Sim PTX: Kernel '_ZN6thrust8cuda_cub4core13_kernel_agentINS0_14__parallel_for16ParallelForAgentINS0_20__uninitialized_copy7functorIPNS_5tupleIflNS_9null_typeES8_S8_S8_S8_S8_S8_S8_EENS_7pointerIS9_NS0_5par_tENS_11use_defaultESD_EEEElEESF_lEEvT0_T1_' : regs=16, lmem=0, smem=0, cmem=376
GPGPU-Sim PTX: Kernel '_ZN6thrust8cuda_cub4core13_kernel_agentINS0_14__parallel_for16ParallelForAgentINS0_10for_each_fINS_7pointerINS_5tupleIflNS_9null_typeES8_S8_S8_S8_S8_S8_S8_EENS0_5par_tENS_11use_defaultESB_EENS_6detail16wrapped_functionINSD_23allocator_traits_detail5gozerEvEEEElEESI_lEEvT0_T1_' : regs=4, lmem=0, smem=0, cmem=376
GPGPU-Sim PTX: Kernel '_ZN6thrust8cuda_cub4core13_kernel_agentINS0_8__reduce11ReduceAgentIPNS_5tupleIflNS_9null_typeES6_S6_S6_S6_S6_S6_S6_EES8_S7_lNS0_9__extrema9arg_max_fIflNS_4lessIfEEEEEES8_S8_iSD_EEvT0_T1_T2_T3_' : regs=34, lmem=0, smem=0, cmem=373
GPGPU-Sim PTX: Kernel '_ZN6thrust8cuda_cub4core13_kernel_agentINS0_8__reduce10DrainAgentIlEEN3cub9GridQueueIyEElEEvT0_T1_' : regs=6, lmem=0, smem=0, cmem=368
GPGPU-Sim PTX: Kernel '_ZN6thrust8cuda_cub4core13_kernel_agentINS0_8__reduce11ReduceAgentINS_12zip_iteratorINS_5tupleIPfNS0_19counting_iterator_tIlEENS_9null_typeESA_SA_SA_SA_SA_SA_SA_EEEEPNS6_IflSA_SA_SA_SA_SA_SA_SA_SA_EESD_lNS0_9__extrema9arg_max_fIflNS_4lessIfEEEEEESC_SE_lN3cub13GridEvenShareIlEENSL_9GridQueueIyEESJ_EEvT0_T1_T2_T3_T4_T5_' : regs=32, lmem=0, smem=0, cmem=465
GPGPU-Sim PTX: Kernel '_ZN6thrust8cuda_cub4core13_kernel_agentINS0_8__reduce11ReduceAgentINS_12zip_iteratorINS_5tupleIPfNS0_19counting_iterator_tIlEENS_9null_typeESA_SA_SA_SA_SA_SA_SA_EEEEPNS6_IflSA_SA_SA_SA_SA_SA_SA_SA_EESD_lNS0_9__extrema9arg_max_fIflNS_4lessIfEEEEEESC_SE_lSJ_EEvT0_T1_T2_T3_' : regs=32, lmem=0, smem=0, cmem=385
GPGPU-Sim PTX: Kernel '_ZN6thrust8cuda_cub4core13_kernel_agentINS0_8__reduce11ReduceAgentIPNS_5tupleIflNS_9null_typeES6_S6_S6_S6_S6_S6_S6_EES8_S7_iNS0_9__extrema9arg_max_fIflNS_4lessIfEEEEEES8_S8_iSD_EEvT0_T1_T2_T3_' : regs=34, lmem=0, smem=0, cmem=373
GPGPU-Sim PTX: Kernel '_ZN6thrust8cuda_cub4core13_kernel_agentINS0_8__reduce10DrainAgentIiEEN3cub9GridQueueIjEEiEEvT0_T1_' : regs=4, lmem=0, smem=0, cmem=364
GPGPU-Sim PTX: Kernel '_ZN6thrust8cuda_cub4core13_kernel_agentINS0_8__reduce11ReduceAgentINS_12zip_iteratorINS_5tupleIPfNS0_19counting_iterator_tIlEENS_9null_typeESA_SA_SA_SA_SA_SA_SA_EEEEPNS6_IflSA_SA_SA_SA_SA_SA_SA_SA_EESD_iNS0_9__extrema9arg_max_fIflNS_4lessIfEEEEEESC_SE_iN3cub13GridEvenShareIiEENSL_9GridQueueIjEESJ_EEvT0_T1_T2_T3_T4_T5_' : regs=32, lmem=0, smem=0, cmem=433
GPGPU-Sim PTX: Kernel '_ZN6thrust8cuda_cub4core13_kernel_agentINS0_8__reduce11ReduceAgentINS_12zip_iteratorINS_5tupleIPfNS0_19counting_iterator_tIlEENS_9null_typeESA_SA_SA_SA_SA_SA_SA_EEEEPNS6_IflSA_SA_SA_SA_SA_SA_SA_SA_EESD_iNS0_9__extrema9arg_max_fIflNS_4lessIfEEEEEESC_SE_iSJ_EEvT0_T1_T2_T3_' : regs=32, lmem=0, smem=0, cmem=381
GPGPU-Sim PTX: Kernel '_Z12bc_normalizeiPff' : regs=16, lmem=0, smem=0, cmem=372
GPGPU-Sim PTX: Kernel '_Z9bc_updateiPiPb' : regs=8, lmem=0, smem=0, cmem=376
GPGPU-Sim PTX: Kernel '_Z10bc_reverseiPKmPKiiPiPfS3_S3_iS4_' : regs=27, lmem=0, smem=0, cmem=432
GPGPU-Sim PTX: Kernel '_Z10bc_forwardiPKmPKiPiS3_iPbS4_S4_S3_S3_i' : regs=21, lmem=0, smem=0, cmem=444
GPGPU-Sim PTX: Kernel '_Z10initializeiiPfPiS0_S_PbS1_' : regs=18, lmem=0, smem=0, cmem=408
GPGPU-Sim PTX: __cudaRegisterFunction _ZN6thrust8cuda_cub4core13_kernel_agentINS0_14__parallel_for16ParallelForAgentINS0_11__transform17unary_transform_fIPNS_5tupleIflNS_9null_typeES8_S8_S8_S8_S8_S8_S8_EESA_NS5_14no_stencil_tagENS_8identityIS9_EENS5_21always_true_predicateEEElEESF_lEEvT0_T1_ : hostFun 0x0x56530df714e5, fat_cubin_handle = 1
GPGPU-Sim PTX: __cudaRegisterFunction _ZN6thrust8cuda_cub4core13_kernel_agentINS0_14__parallel_for16ParallelForAgentINS0_20__uninitialized_copy7functorIPNS_5tupleIflNS_9null_typeES8_S8_S8_S8_S8_S8_S8_EENS_7pointerIS9_NS0_5par_tENS_11use_defaultESD_EEEElEESF_lEEvT0_T1_ : hostFun 0x0x56530df714a9, fat_cubin_handle = 1
GPGPU-Sim PTX: __cudaRegisterFunction _ZN6thrust8cuda_cub4core13_kernel_agentINS0_14__parallel_for16ParallelForAgentINS0_10for_each_fINS_7pointerINS_5tupleIflNS_9null_typeES8_S8_S8_S8_S8_S8_S8_EENS0_5par_tENS_11use_defaultESB_EENS_6detail16wrapped_functionINSD_23allocator_traits_detail5gozerEvEEEElEESI_lEEvT0_T1_ : hostFun 0x0x56530df7147c, fat_cubin_handle = 1
GPGPU-Sim PTX: __cudaRegisterFunction _ZN6thrust8cuda_cub4core13_kernel_agentINS0_8__reduce11ReduceAgentIPNS_5tupleIflNS_9null_typeES6_S6_S6_S6_S6_S6_S6_EES8_S7_lNS0_9__extrema9arg_max_fIflNS_4lessIfEEEEEES8_S8_iSD_EEvT0_T1_T2_T3_ : hostFun 0x0x56530df7144e, fat_cubin_handle = 1
GPGPU-Sim PTX: __cudaRegisterFunction _ZN6thrust8cuda_cub4core13_kernel_agentINS0_8__reduce10DrainAgentIlEEN3cub9GridQueueIyEElEEvT0_T1_ : hostFun 0x0x56530df71428, fat_cubin_handle = 1
GPGPU-Sim PTX: __cudaRegisterFunction _ZN6thrust8cuda_cub4core13_kernel_agentINS0_8__reduce11ReduceAgentINS_12zip_iteratorINS_5tupleIPfNS0_19counting_iterator_tIlEENS_9null_typeESA_SA_SA_SA_SA_SA_SA_EEEEPNS6_IflSA_SA_SA_SA_SA_SA_SA_SA_EESD_lNS0_9__extrema9arg_max_fIflNS_4lessIfEEEEEESC_SE_lN3cub13GridEvenShareIlEENSL_9GridQueueIyEESJ_EEvT0_T1_T2_T3_T4_T5_ : hostFun 0x0x56530df713d4, fat_cubin_handle = 1
GPGPU-Sim PTX: __cudaRegisterFunction _ZN6thrust8cuda_cub4core13_kernel_agentINS0_8__reduce11ReduceAgentINS_12zip_iteratorINS_5tupleIPfNS0_19counting_iterator_tIlEENS_9null_typeESA_SA_SA_SA_SA_SA_SA_EEEEPNS6_IflSA_SA_SA_SA_SA_SA_SA_SA_EESD_lNS0_9__extrema9arg_max_fIflNS_4lessIfEEEEEESC_SE_lSJ_EEvT0_T1_T2_T3_ : hostFun 0x0x56530df71392, fat_cubin_handle = 1
GPGPU-Sim PTX: __cudaRegisterFunction _ZN6thrust8cuda_cub4core13_kernel_agentINS0_8__reduce11ReduceAgentIPNS_5tupleIflNS_9null_typeES6_S6_S6_S6_S6_S6_S6_EES8_S7_iNS0_9__extrema9arg_max_fIflNS_4lessIfEEEEEES8_S8_iSD_EEvT0_T1_T2_T3_ : hostFun 0x0x56530df71364, fat_cubin_handle = 1
GPGPU-Sim PTX: __cudaRegisterFunction _ZN6thrust8cuda_cub4core13_kernel_agentINS0_8__reduce10DrainAgentIiEEN3cub9GridQueueIjEEiEEvT0_T1_ : hostFun 0x0x56530df7133f, fat_cubin_handle = 1
GPGPU-Sim PTX: __cudaRegisterFunction _ZN6thrust8cuda_cub4core13_kernel_agentINS0_8__reduce11ReduceAgentINS_12zip_iteratorINS_5tupleIPfNS0_19counting_iterator_tIlEENS_9null_typeESA_SA_SA_SA_SA_SA_SA_EEEEPNS6_IflSA_SA_SA_SA_SA_SA_SA_SA_EESD_iNS0_9__extrema9arg_max_fIflNS_4lessIfEEEEEESC_SE_iN3cub13GridEvenShareIiEENSL_9GridQueueIjEESJ_EEvT0_T1_T2_T3_T4_T5_ : hostFun 0x0x56530df712ec, fat_cubin_handle = 1
GPGPU-Sim PTX: __cudaRegisterFunction _ZN6thrust8cuda_cub4core13_kernel_agentINS0_8__reduce11ReduceAgentINS_12zip_iteratorINS_5tupleIPfNS0_19counting_iterator_tIlEENS_9null_typeESA_SA_SA_SA_SA_SA_SA_EEEEPNS6_IflSA_SA_SA_SA_SA_SA_SA_SA_EESD_iNS0_9__extrema9arg_max_fIflNS_4lessIfEEEEEESC_SE_iSJ_EEvT0_T1_T2_T3_ : hostFun 0x0x56530df712ab, fat_cubin_handle = 1
GPGPU-Sim PTX: __cudaRegisterFunction _Z12bc_normalizeiPff : hostFun 0x0x56530df6d5f1, fat_cubin_handle = 1
GPGPU-Sim PTX: __cudaRegisterFunction _Z9bc_updateiPiPb : hostFun 0x0x56530df6d46f, fat_cubin_handle = 1
GPGPU-Sim PTX: __cudaRegisterFunction _Z10bc_reverseiPKmPKiiPiPfS3_S3_iS4_ : hostFun 0x0x56530df6d2ca, fat_cubin_handle = 1
GPGPU-Sim PTX: __cudaRegisterFunction _Z10bc_forwardiPKmPKiPiS3_iPbS4_S4_S3_S3_i : hostFun 0x0x56530df6cff5, fat_cubin_handle = 1
GPGPU-Sim PTX: __cudaRegisterFunction _Z10initializeiiPfPiS0_S_PbS1_ : hostFun 0x0x56530df6ccc4, fat_cubin_handle = 1
GPGPU-Sim PTX: __cudaRegisterVar: hostVar = 0x56530df86735; deviceAddress = _ZN43_INTERNAL_00221b7d_12_topo_base_cu_297024296thrust6system6detail10sequential3seqE; deviceName = _ZN43_INTERNAL_00221b7d_12_topo_base_cu_297024296thrust6system6detail10sequential3seqE
GPGPU-Sim PTX: __cudaRegisterVar: Registering const memory space of 1 bytes
GPGPU-Sim PTX registering global _ZN43_INTERNAL_00221b7d_12_topo_base_cu_297024296thrust6system6detail10sequential3seqE hostVar to name mapping
GPGPU-Sim PTX: __cudaRegisterVar: hostVar = 0x56530df8673d; deviceAddress = _ZN43_INTERNAL_00221b7d_12_topo_base_cu_297024296thrust6system3cpp3parE; deviceName = _ZN43_INTERNAL_00221b7d_12_topo_base_cu_297024296thrust6system3cpp3parE
GPGPU-Sim PTX: __cudaRegisterVar: Registering const memory space of 1 bytes
GPGPU-Sim PTX registering global _ZN43_INTERNAL_00221b7d_12_topo_base_cu_297024296thrust6system3cpp3parE hostVar to name mapping
GPGPU-Sim PTX: __cudaRegisterVar: hostVar = 0x56530df868c4; deviceAddress = _ZN43_INTERNAL_00221b7d_12_topo_base_cu_297024296thrust8cuda_cub3parE; deviceName = _ZN43_INTERNAL_00221b7d_12_topo_base_cu_297024296thrust8cuda_cub3parE
GPGPU-Sim PTX: __cudaRegisterVar: Registering const memory space of 1 bytes
GPGPU-Sim PTX registering global _ZN43_INTERNAL_00221b7d_12_topo_base_cu_297024296thrust8cuda_cub3parE hostVar to name mapping
GPGPU-Sim PTX: __cudaRegisterVar: hostVar = 0x56530df8673e; deviceAddress = _ZN43_INTERNAL_00221b7d_12_topo_base_cu_297024296thrust12placeholders2_1E; deviceName = _ZN43_INTERNAL_00221b7d_12_topo_base_cu_297024296thrust12placeholders2_1E
GPGPU-Sim PTX: __cudaRegisterVar: Registering const memory space of 1 bytes
GPGPU-Sim PTX registering global _ZN43_INTERNAL_00221b7d_12_topo_base_cu_297024296thrust12placeholders2_1E hostVar to name mapping
GPGPU-Sim PTX: __cudaRegisterVar: hostVar = 0x56530df8673f; deviceAddress = _ZN43_INTERNAL_00221b7d_12_topo_base_cu_297024296thrust12placeholders2_2E; deviceName = _ZN43_INTERNAL_00221b7d_12_topo_base_cu_297024296thrust12placeholders2_2E
GPGPU-Sim PTX: __cudaRegisterVar: Registering const memory space of 1 bytes
GPGPU-Sim PTX registering global _ZN43_INTERNAL_00221b7d_12_topo_base_cu_297024296thrust12placeholders2_2E hostVar to name mapping
GPGPU-Sim PTX: __cudaRegisterVar: hostVar = 0x56530df86740; deviceAddress = _ZN43_INTERNAL_00221b7d_12_topo_base_cu_297024296thrust12placeholders2_3E; deviceName = _ZN43_INTERNAL_00221b7d_12_topo_base_cu_297024296thrust12placeholders2_3E
GPGPU-Sim PTX: __cudaRegisterVar: Registering const memory space of 1 bytes
GPGPU-Sim PTX registering global _ZN43_INTERNAL_00221b7d_12_topo_base_cu_297024296thrust12placeholders2_3E hostVar to name mapping
GPGPU-Sim PTX: __cudaRegisterVar: hostVar = 0x56530df86741; deviceAddress = _ZN43_INTERNAL_00221b7d_12_topo_base_cu_297024296thrust12placeholders2_4E; deviceName = _ZN43_INTERNAL_00221b7d_12_topo_base_cu_297024296thrust12placeholders2_4E
GPGPU-Sim PTX: __cudaRegisterVar: Registering const memory space of 1 bytes
GPGPU-Sim PTX registering global _ZN43_INTERNAL_00221b7d_12_topo_base_cu_297024296thrust12placeholders2_4E hostVar to name mapping
GPGPU-Sim PTX: __cudaRegisterVar: hostVar = 0x56530df86742; deviceAddress = _ZN43_INTERNAL_00221b7d_12_topo_base_cu_297024296thrust12placeholders2_5E; deviceName = _ZN43_INTERNAL_00221b7d_12_topo_base_cu_297024296thrust12placeholders2_5E
GPGPU-Sim PTX: __cudaRegisterVar: Registering const memory space of 1 bytes
GPGPU-Sim PTX registering global _ZN43_INTERNAL_00221b7d_12_topo_base_cu_297024296thrust12placeholders2_5E hostVar to name mapping
GPGPU-Sim PTX: __cudaRegisterVar: hostVar = 0x56530df86743; deviceAddress = _ZN43_INTERNAL_00221b7d_12_topo_base_cu_297024296thrust12placeholders2_6E; deviceName = _ZN43_INTERNAL_00221b7d_12_topo_base_cu_297024296thrust12placeholders2_6E
GPGPU-Sim PTX: __cudaRegisterVar: Registering const memory space of 1 bytes
GPGPU-Sim PTX registering global _ZN43_INTERNAL_00221b7d_12_topo_base_cu_297024296thrust12placeholders2_6E hostVar to name mapping
GPGPU-Sim PTX: __cudaRegisterVar: hostVar = 0x56530df86744; deviceAddress = _ZN43_INTERNAL_00221b7d_12_topo_base_cu_297024296thrust12placeholders2_7E; deviceName = _ZN43_INTERNAL_00221b7d_12_topo_base_cu_297024296thrust12placeholders2_7E
GPGPU-Sim PTX: __cudaRegisterVar: Registering const memory space of 1 bytes
GPGPU-Sim PTX registering global _ZN43_INTERNAL_00221b7d_12_topo_base_cu_297024296thrust12placeholders2_7E hostVar to name mapping
GPGPU-Sim PTX: __cudaRegisterVar: hostVar = 0x56530df86745; deviceAddress = _ZN43_INTERNAL_00221b7d_12_topo_base_cu_297024296thrust12placeholders2_8E; deviceName = _ZN43_INTERNAL_00221b7d_12_topo_base_cu_297024296thrust12placeholders2_8E
GPGPU-Sim PTX: __cudaRegisterVar: Registering const memory space of 1 bytes
GPGPU-Sim PTX registering global _ZN43_INTERNAL_00221b7d_12_topo_base_cu_297024296thrust12placeholders2_8E hostVar to name mapping
GPGPU-Sim PTX: __cudaRegisterVar: hostVar = 0x56530df86746; deviceAddress = _ZN43_INTERNAL_00221b7d_12_topo_base_cu_297024296thrust12placeholders2_9E; deviceName = _ZN43_INTERNAL_00221b7d_12_topo_base_cu_297024296thrust12placeholders2_9E
GPGPU-Sim PTX: __cudaRegisterVar: Registering const memory space of 1 bytes
GPGPU-Sim PTX registering global _ZN43_INTERNAL_00221b7d_12_topo_base_cu_297024296thrust12placeholders2_9E hostVar to name mapping
GPGPU-Sim PTX: __cudaRegisterVar: hostVar = 0x56530df86747; deviceAddress = _ZN43_INTERNAL_00221b7d_12_topo_base_cu_297024296thrust12placeholders3_10E; deviceName = _ZN43_INTERNAL_00221b7d_12_topo_base_cu_297024296thrust12placeholders3_10E
GPGPU-Sim PTX: __cudaRegisterVar: Registering const memory space of 1 bytes
GPGPU-Sim PTX registering global _ZN43_INTERNAL_00221b7d_12_topo_base_cu_297024296thrust12placeholders3_10E hostVar to name mapping
GPGPU-Sim PTX: __cudaRegisterVar: hostVar = 0x56530df8673c; deviceAddress = _ZN43_INTERNAL_00221b7d_12_topo_base_cu_297024296thrust3seqE; deviceName = _ZN43_INTERNAL_00221b7d_12_topo_base_cu_297024296thrust3seqE
GPGPU-Sim PTX: __cudaRegisterVar: Registering const memory space of 1 bytes
GPGPU-Sim PTX registering global _ZN43_INTERNAL_00221b7d_12_topo_base_cu_297024296thrust3seqE hostVar to name mapping
GPGPU-Sim PTX: __cudaRegisterVar: hostVar = 0x56530df86952; deviceAddress = _ZN43_INTERNAL_00221b7d_12_topo_base_cu_297024296thrust6deviceE; deviceName = _ZN43_INTERNAL_00221b7d_12_topo_base_cu_297024296thrust6deviceE
GPGPU-Sim PTX: __cudaRegisterVar: Registering const memory space of 1 bytes
GPGPU-Sim PTX registering global _ZN43_INTERNAL_00221b7d_12_topo_base_cu_297024296thrust6deviceE hostVar to name mapping
Betweenness Centrality by Xuhao Chen
Reading (.mtx) input file ../CudaBenchmarks/gardenia/datasets/soc-LiveJournal1.mtx
Removing redundent edges... 0 redundent edges are removed
|V| 4847571 |E| 68475391
GPGPU-Sim PTX: Setting up arguments for 4 bytes starting at 0x7ffce8d0ceec..
GPGPU-Sim PTX: Setting up arguments for 4 bytes starting at 0x7ffce8d0cee8..
GPGPU-Sim PTX: Setting up arguments for 8 bytes starting at 0x7ffce8d0cee0..
GPGPU-Sim PTX: Setting up arguments for 8 bytes starting at 0x7ffce8d0ced8..
GPGPU-Sim PTX: Setting up arguments for 8 bytes starting at 0x7ffce8d0ced0..
GPGPU-Sim PTX: Setting up arguments for 8 bytes starting at 0x7ffce8d0cec8..
GPGPU-Sim PTX: Setting up arguments for 8 bytes starting at 0x7ffce8d0cec0..
GPGPU-Sim PTX: Setting up arguments for 8 bytes starting at 0x7ffce8d0ceb8..

GPGPU-Sim PTX: cudaLaunch for 0x0x56530df6ccc4 (mode=performance simulation) on stream 0
GPGPU-Sim PTX: finding reconvergence points for '_Z10initializeiiPfPiS0_S_PbS1_'...
GPGPU-Sim PTX: Finding dominators for '_Z10initializeiiPfPiS0_S_PbS1_'...
GPGPU-Sim PTX: Finding immediate dominators for '_Z10initializeiiPfPiS0_S_PbS1_'...
GPGPU-Sim PTX: Finding postdominators for '_Z10initializeiiPfPiS0_S_PbS1_'...
GPGPU-Sim PTX: Finding immediate postdominators for '_Z10initializeiiPfPiS0_S_PbS1_'...
GPGPU-Sim PTX: pre-decoding instructions for '_Z10initializeiiPfPiS0_S_PbS1_'...
GPGPU-Sim PTX: reconvergence points for _Z10initializeiiPfPiS0_S_PbS1_...
GPGPU-Sim PTX:  1 (potential) branch divergence @  PC=0x078 (bc_topo_base.1.sm_75.ptx:63) @%p1 bra $L__BB0_4;

GPGPU-Sim PTX:    immediate post dominator      @  PC=0x188 (bc_topo_base.1.sm_75.ptx:104) ret;

GPGPU-Sim PTX:  2 (potential) branch divergence @  PC=0x100 (bc_topo_base.1.sm_75.ptx:81) @%p2 bra $L__BB0_3;

GPGPU-Sim PTX:    immediate post dominator      @  PC=0x188 (bc_topo_base.1.sm_75.ptx:104) ret;

GPGPU-Sim PTX:  3 (potential) branch divergence @  PC=0x108 (bc_topo_base.1.sm_75.ptx:82) bra.uni $L__BB0_2;

GPGPU-Sim PTX:    immediate post dominator      @  PC=0x158 (bc_topo_base.1.sm_75.ptx:96) st.global.u8 [%rd3], %rs1;

GPGPU-Sim PTX:  4 (potential) branch divergence @  PC=0x150 (bc_topo_base.1.sm_75.ptx:93) bra.uni $L__BB0_4;

GPGPU-Sim PTX:    immediate post dominator      @  PC=0x188 (bc_topo_base.1.sm_75.ptx:104) ret;

GPGPU-Sim PTX: ... end of reconvergence points for _Z10initializeiiPfPiS0_S_PbS1_
GPGPU-Sim PTX: ... done pre-decoding instructions for '_Z10initializeiiPfPiS0_S_PbS1_'.
GPGPU-Sim PTX: pushing kernel '_Z10initializeiiPfPiS0_S_PbS1_' to stream 0, gridDim= (18936,1,1) blockDim = (256,1,1) 
GPGPU-Sim uArch: Shader 0 bind to kernel 1 '_Z10initializeiiPfPiS0_S_PbS1_'
GPGPU-Sim uArch: CTA/core = 4, limited by: threads
GPGPU-Sim: Reconfigure L1 cache to 64KB
GPGPU-Sim uArch: Shader 1 bind to kernel 1 '_Z10initializeiiPfPiS0_S_PbS1_'
GPGPU-Sim uArch: Shader 2 bind to kernel 1 '_Z10initializeiiPfPiS0_S_PbS1_'
GPGPU-Sim uArch: Shader 3 bind to kernel 1 '_Z10initializeiiPfPiS0_S_PbS1_'
GPGPU-Sim uArch: Shader 4 bind to kernel 1 '_Z10initializeiiPfPiS0_S_PbS1_'
GPGPU-Sim uArch: Shader 5 bind to kernel 1 '_Z10initializeiiPfPiS0_S_PbS1_'
GPGPU-Sim uArch: Shader 6 bind to kernel 1 '_Z10initializeiiPfPiS0_S_PbS1_'
GPGPU-Sim uArch: Shader 7 bind to kernel 1 '_Z10initializeiiPfPiS0_S_PbS1_'
GPGPU-Sim uArch: Shader 8 bind to kernel 1 '_Z10initializeiiPfPiS0_S_PbS1_'
GPGPU-Sim uArch: Shader 9 bind to kernel 1 '_Z10initializeiiPfPiS0_S_PbS1_'
GPGPU-Sim uArch: Shader 10 bind to kernel 1 '_Z10initializeiiPfPiS0_S_PbS1_'
GPGPU-Sim uArch: Shader 11 bind to kernel 1 '_Z10initializeiiPfPiS0_S_PbS1_'
GPGPU-Sim uArch: Shader 12 bind to kernel 1 '_Z10initializeiiPfPiS0_S_PbS1_'
GPGPU-Sim uArch: Shader 13 bind to kernel 1 '_Z10initializeiiPfPiS0_S_PbS1_'
GPGPU-Sim uArch: Shader 14 bind to kernel 1 '_Z10initializeiiPfPiS0_S_PbS1_'
GPGPU-Sim uArch: Shader 15 bind to kernel 1 '_Z10initializeiiPfPiS0_S_PbS1_'
GPGPU-Sim uArch: Shader 16 bind to kernel 1 '_Z10initializeiiPfPiS0_S_PbS1_'
GPGPU-Sim uArch: Shader 17 bind to kernel 1 '_Z10initializeiiPfPiS0_S_PbS1_'
GPGPU-Sim uArch: Shader 18 bind to kernel 1 '_Z10initializeiiPfPiS0_S_PbS1_'
GPGPU-Sim uArch: Shader 19 bind to kernel 1 '_Z10initializeiiPfPiS0_S_PbS1_'
GPGPU-Sim uArch: Shader 20 bind to kernel 1 '_Z10initializeiiPfPiS0_S_PbS1_'
GPGPU-Sim uArch: Shader 21 bind to kernel 1 '_Z10initializeiiPfPiS0_S_PbS1_'
GPGPU-Sim uArch: Shader 22 bind to kernel 1 '_Z10initializeiiPfPiS0_S_PbS1_'
GPGPU-Sim uArch: Shader 23 bind to kernel 1 '_Z10initializeiiPfPiS0_S_PbS1_'
GPGPU-Sim uArch: Shader 24 bind to kernel 1 '_Z10initializeiiPfPiS0_S_PbS1_'
GPGPU-Sim uArch: Shader 25 bind to kernel 1 '_Z10initializeiiPfPiS0_S_PbS1_'
GPGPU-Sim uArch: Shader 26 bind to kernel 1 '_Z10initializeiiPfPiS0_S_PbS1_'
GPGPU-Sim uArch: Shader 27 bind to kernel 1 '_Z10initializeiiPfPiS0_S_PbS1_'
GPGPU-Sim uArch: Shader 28 bind to kernel 1 '_Z10initializeiiPfPiS0_S_PbS1_'
GPGPU-Sim uArch: Shader 29 bind to kernel 1 '_Z10initializeiiPfPiS0_S_PbS1_'
Destroy streams for kernel 1: size 0
kernel_name = _Z10initializeiiPfPiS0_S_PbS1_ 
kernel_launch_uid = 1 
gpu_sim_cycle = 354091
gpu_sim_insn = 189056037
gpu_ipc =     533.9193
gpu_tot_sim_cycle = 354091
gpu_tot_sim_insn = 189056037
gpu_tot_ipc =     533.9193
gpu_tot_issued_cta = 18936
gpu_occupancy = 95.8397% 
gpu_tot_occupancy = 95.8397% 
max_total_param_size = 0
gpu_stall_dramfull = 5497103
gpu_stall_icnt2sh    = 0
partiton_level_parallism =       7.7007
partiton_level_parallism_total  =       7.7007
partiton_level_parallism_util =       7.8658
partiton_level_parallism_util_total  =       7.8658
L2_BW  =     336.3686 GB/Sec
L2_BW_total  =     336.3686 GB/Sec
gpu_total_sim_rate=58314

========= Core cache stats =========
L1I_cache:
	L1I_total_cache_accesses = 0
	L1I_total_cache_misses = 0
	L1I_total_cache_pending_hits = 0
	L1I_total_cache_reservation_fails = 0
L1D_cache:
	L1D_cache_core[0]: Access = 90291, Miss = 90288, Miss_rate = 1.000, Pending_hits = 0, Reservation_fails = 114565
	L1D_cache_core[1]: Access = 91440, Miss = 91440, Miss_rate = 1.000, Pending_hits = 0, Reservation_fails = 114392
	L1D_cache_core[2]: Access = 91562, Miss = 91562, Miss_rate = 1.000, Pending_hits = 0, Reservation_fails = 115595
	L1D_cache_core[3]: Access = 91296, Miss = 91296, Miss_rate = 1.000, Pending_hits = 0, Reservation_fails = 115229
	L1D_cache_core[4]: Access = 87408, Miss = 87408, Miss_rate = 1.000, Pending_hits = 0, Reservation_fails = 112298
	L1D_cache_core[5]: Access = 93456, Miss = 93456, Miss_rate = 1.000, Pending_hits = 0, Reservation_fails = 117530
	L1D_cache_core[6]: Access = 91728, Miss = 91728, Miss_rate = 1.000, Pending_hits = 0, Reservation_fails = 115166
	L1D_cache_core[7]: Access = 91152, Miss = 91152, Miss_rate = 1.000, Pending_hits = 0, Reservation_fails = 114259
	L1D_cache_core[8]: Access = 90288, Miss = 90288, Miss_rate = 1.000, Pending_hits = 0, Reservation_fails = 113187
	L1D_cache_core[9]: Access = 92592, Miss = 92592, Miss_rate = 1.000, Pending_hits = 0, Reservation_fails = 116393
	L1D_cache_core[10]: Access = 91296, Miss = 91296, Miss_rate = 1.000, Pending_hits = 0, Reservation_fails = 114811
	L1D_cache_core[11]: Access = 90864, Miss = 90864, Miss_rate = 1.000, Pending_hits = 0, Reservation_fails = 116596
	L1D_cache_core[12]: Access = 88416, Miss = 88416, Miss_rate = 1.000, Pending_hits = 0, Reservation_fails = 112640
	L1D_cache_core[13]: Access = 91872, Miss = 91872, Miss_rate = 1.000, Pending_hits = 0, Reservation_fails = 115748
	L1D_cache_core[14]: Access = 88128, Miss = 88128, Miss_rate = 1.000, Pending_hits = 0, Reservation_fails = 111800
	L1D_cache_core[15]: Access = 92592, Miss = 92592, Miss_rate = 1.000, Pending_hits = 0, Reservation_fails = 115076
	L1D_cache_core[16]: Access = 92016, Miss = 92016, Miss_rate = 1.000, Pending_hits = 0, Reservation_fails = 117050
	L1D_cache_core[17]: Access = 87984, Miss = 87984, Miss_rate = 1.000, Pending_hits = 0, Reservation_fails = 112522
	L1D_cache_core[18]: Access = 90000, Miss = 90000, Miss_rate = 1.000, Pending_hits = 0, Reservation_fails = 113404
	L1D_cache_core[19]: Access = 90864, Miss = 90864, Miss_rate = 1.000, Pending_hits = 0, Reservation_fails = 115383
	L1D_cache_core[20]: Access = 91728, Miss = 91728, Miss_rate = 1.000, Pending_hits = 0, Reservation_fails = 116738
	L1D_cache_core[21]: Access = 92016, Miss = 92016, Miss_rate = 1.000, Pending_hits = 0, Reservation_fails = 115222
	L1D_cache_core[22]: Access = 92880, Miss = 92880, Miss_rate = 1.000, Pending_hits = 0, Reservation_fails = 116970
	L1D_cache_core[23]: Access = 89280, Miss = 89280, Miss_rate = 1.000, Pending_hits = 0, Reservation_fails = 112880
	L1D_cache_core[24]: Access = 91008, Miss = 91008, Miss_rate = 1.000, Pending_hits = 0, Reservation_fails = 114258
	L1D_cache_core[25]: Access = 89712, Miss = 89712, Miss_rate = 1.000, Pending_hits = 0, Reservation_fails = 112819
	L1D_cache_core[26]: Access = 92304, Miss = 92304, Miss_rate = 1.000, Pending_hits = 0, Reservation_fails = 115404
	L1D_cache_core[27]: Access = 91440, Miss = 91440, Miss_rate = 1.000, Pending_hits = 0, Reservation_fails = 114040
	L1D_cache_core[28]: Access = 87840, Miss = 87840, Miss_rate = 1.000, Pending_hits = 0, Reservation_fails = 111235
	L1D_cache_core[29]: Access = 93312, Miss = 93312, Miss_rate = 1.000, Pending_hits = 0, Reservation_fails = 115893
	L1D_total_cache_accesses = 2726765
	L1D_total_cache_misses = 2726762
	L1D_total_cache_miss_rate = 1.0000
	L1D_total_cache_pending_hits = 0
	L1D_total_cache_reservation_fails = 3439103
	L1D_cache_data_port_util = 0.000
	L1D_cache_fill_port_util = 0.000
L1C_cache:
	L1C_total_cache_accesses = 0
	L1C_total_cache_misses = 0
	L1C_total_cache_pending_hits = 0
	L1C_total_cache_reservation_fails = 0
L1T_cache:
	L1T_total_cache_accesses = 0
	L1T_total_cache_misses = 0
	L1T_total_cache_pending_hits = 0
	L1T_total_cache_reservation_fails = 0

Total_core_cache_stats:
	Total_core_cache_stats_breakdown[GLOBAL_ACC_R][HIT] = 0
	Total_core_cache_stats_breakdown[GLOBAL_ACC_R][HIT_RESERVED] = 0
	Total_core_cache_stats_breakdown[GLOBAL_ACC_R][MISS] = 0
	Total_core_cache_stats_breakdown[GLOBAL_ACC_R][RESERVATION_FAIL] = 0
	Total_core_cache_stats_breakdown[GLOBAL_ACC_R][SECTOR_MISS] = 0
	Total_core_cache_stats_breakdown[GLOBAL_ACC_R][MSHR_HIT] = 0
	Total_core_cache_stats_breakdown[LOCAL_ACC_R][HIT] = 0
	Total_core_cache_stats_breakdown[LOCAL_ACC_R][HIT_RESERVED] = 0
	Total_core_cache_stats_breakdown[LOCAL_ACC_R][MISS] = 0
	Total_core_cache_stats_breakdown[LOCAL_ACC_R][RESERVATION_FAIL] = 0
	Total_core_cache_stats_breakdown[LOCAL_ACC_R][SECTOR_MISS] = 0
	Total_core_cache_stats_breakdown[LOCAL_ACC_R][MSHR_HIT] = 0
	Total_core_cache_stats_breakdown[CONST_ACC_R][HIT] = 0
	Total_core_cache_stats_breakdown[CONST_ACC_R][HIT_RESERVED] = 0
	Total_core_cache_stats_breakdown[CONST_ACC_R][MISS] = 0
	Total_core_cache_stats_breakdown[CONST_ACC_R][RESERVATION_FAIL] = 0
	Total_core_cache_stats_breakdown[CONST_ACC_R][SECTOR_MISS] = 0
	Total_core_cache_stats_breakdown[CONST_ACC_R][MSHR_HIT] = 0
	Total_core_cache_stats_breakdown[TEXTURE_ACC_R][HIT] = 0
	Total_core_cache_stats_breakdown[TEXTURE_ACC_R][HIT_RESERVED] = 0
	Total_core_cache_stats_breakdown[TEXTURE_ACC_R][MISS] = 0
	Total_core_cache_stats_breakdown[TEXTURE_ACC_R][RESERVATION_FAIL] = 0
	Total_core_cache_stats_breakdown[TEXTURE_ACC_R][SECTOR_MISS] = 0
	Total_core_cache_stats_breakdown[TEXTURE_ACC_R][MSHR_HIT] = 0
	Total_core_cache_stats_breakdown[GLOBAL_ACC_W][HIT] = 3
	Total_core_cache_stats_breakdown[GLOBAL_ACC_W][HIT_RESERVED] = 0
	Total_core_cache_stats_breakdown[GLOBAL_ACC_W][MISS] = 681692
	Total_core_cache_stats_breakdown[GLOBAL_ACC_W][RESERVATION_FAIL] = 3439103
	Total_core_cache_stats_breakdown[GLOBAL_ACC_W][SECTOR_MISS] = 2045070
	Total_core_cache_stats_breakdown[GLOBAL_ACC_W][MSHR_HIT] = 0
	Total_core_cache_stats_breakdown[LOCAL_ACC_W][HIT] = 0
	Total_core_cache_stats_breakdown[LOCAL_ACC_W][HIT_RESERVED] = 0
	Total_core_cache_stats_breakdown[LOCAL_ACC_W][MISS] = 0
	Total_core_cache_stats_breakdown[LOCAL_ACC_W][RESERVATION_FAIL] = 0
	Total_core_cache_stats_breakdown[LOCAL_ACC_W][SECTOR_MISS] = 0
	Total_core_cache_stats_breakdown[LOCAL_ACC_W][MSHR_HIT] = 0
	Total_core_cache_stats_breakdown[L1_WRBK_ACC][HIT] = 0
	Total_core_cache_stats_breakdown[L1_WRBK_ACC][HIT_RESERVED] = 0
	Total_core_cache_stats_breakdown[L1_WRBK_ACC][MISS] = 0
	Total_core_cache_stats_breakdown[L1_WRBK_ACC][RESERVATION_FAIL] = 0
	Total_core_cache_stats_breakdown[L1_WRBK_ACC][SECTOR_MISS] = 0
	Total_core_cache_stats_breakdown[L1_WRBK_ACC][MSHR_HIT] = 0
	Total_core_cache_stats_breakdown[L2_WRBK_ACC][HIT] = 0
	Total_core_cache_stats_breakdown[L2_WRBK_ACC][HIT_RESERVED] = 0
	Total_core_cache_stats_breakdown[L2_WRBK_ACC][MISS] = 0
	Total_core_cache_stats_breakdown[L2_WRBK_ACC][RESERVATION_FAIL] = 0
	Total_core_cache_stats_breakdown[L2_WRBK_ACC][SECTOR_MISS] = 0
	Total_core_cache_stats_breakdown[L2_WRBK_ACC][MSHR_HIT] = 0
	Total_core_cache_stats_breakdown[INST_ACC_R][HIT] = 0
	Total_core_cache_stats_breakdown[INST_ACC_R][HIT_RESERVED] = 0
	Total_core_cache_stats_breakdown[INST_ACC_R][MISS] = 0
	Total_core_cache_stats_breakdown[INST_ACC_R][RESERVATION_FAIL] = 0
	Total_core_cache_stats_breakdown[INST_ACC_R][SECTOR_MISS] = 0
	Total_core_cache_stats_breakdown[INST_ACC_R][MSHR_HIT] = 0
	Total_core_cache_stats_breakdown[L1_WR_ALLOC_R][HIT] = 0
	Total_core_cache_stats_breakdown[L1_WR_ALLOC_R][HIT_RESERVED] = 0
	Total_core_cache_stats_breakdown[L1_WR_ALLOC_R][MISS] = 0
	Total_core_cache_stats_breakdown[L1_WR_ALLOC_R][RESERVATION_FAIL] = 0
	Total_core_cache_stats_breakdown[L1_WR_ALLOC_R][SECTOR_MISS] = 0
	Total_core_cache_stats_breakdown[L1_WR_ALLOC_R][MSHR_HIT] = 0
	Total_core_cache_stats_breakdown[L2_WR_ALLOC_R][HIT] = 0
	Total_core_cache_stats_breakdown[L2_WR_ALLOC_R][HIT_RESERVED] = 0
	Total_core_cache_stats_breakdown[L2_WR_ALLOC_R][MISS] = 0
	Total_core_cache_stats_breakdown[L2_WR_ALLOC_R][RESERVATION_FAIL] = 0
	Total_core_cache_stats_breakdown[L2_WR_ALLOC_R][SECTOR_MISS] = 0
	Total_core_cache_stats_breakdown[L2_WR_ALLOC_R][MSHR_HIT] = 0
	Total_core_cache_stats_breakdown[GLOBAL_ACC_W][TOTAL_ACCESS] = 2726765

Total_core_cache_fail_stats:
	Total_core_cache_fail_stats_breakdown[GLOBAL_ACC_W][MISS_QUEUE_FULL] = 3439103
ctas_completed 18936, Shader 0 warp_id issue ditsribution:
warp_id:
0, 1, 2, 3, 4, 5, 6, 7, 8, 9, 10, 11, 12, 13, 14, 15, 16, 17, 18, 19, 20, 21, 22, 23, 24, 25, 26, 27, 28, 29, 30, 31, 
distro:
6446, 6437, 6437, 6437, 6437, 6437, 6437, 6437, 6396, 6396, 6396, 6396, 6396, 6396, 6396, 6396, 6396, 6396, 6396, 6396, 6396, 6396, 6396, 6396, 6478, 6478, 6478, 6478, 6478, 6478, 6478, 6478, 
gpgpu_n_tot_thrd_icount = 198751776
gpgpu_n_tot_w_icount = 6210993
gpgpu_n_stall_shd_mem = 720094
gpgpu_n_mem_read_local = 0
gpgpu_n_mem_write_local = 0
gpgpu_n_mem_read_global = 0
gpgpu_n_mem_write_global = 2726765
gpgpu_n_mem_texture = 0
gpgpu_n_mem_const = 0
gpgpu_n_load_insn  = 0
gpgpu_n_store_insn = 29085426
gpgpu_n_shmem_insn = 0
gpgpu_n_sstarr_insn = 0
gpgpu_n_tex_insn = 0
gpgpu_n_const_mem_insn = 0
gpgpu_n_param_mem_insn = 38780928
gpgpu_n_shmem_bkconflict = 0
gpgpu_n_cache_bkconflict = 0
gpgpu_n_intrawarp_mshr_merge = 0
gpgpu_n_cmem_portconflict = 0
gpgpu_stall_shd_mem[c_mem][resource_stall] = 0
gpgpu_stall_shd_mem[s_mem][bk_conf] = 0
gpgpu_stall_shd_mem[gl_mem][resource_stall] = 720094
gpgpu_stall_shd_mem[gl_mem][coal_stall] = 0
gpgpu_stall_shd_mem[gl_mem][data_port_stall] = 0
gpu_reg_bank_conflict_stalls = 0
Warp Occupancy Distribution:
Stall:6205617	W0_Idle:27176232	W0_Scoreboard:2219998	W1:9	W2:0	W3:0	W4:0	W5:0	W6:0	W7:0	W8:0	W9:0	W10:0	W11:0	W12:0	W13:0	W14:0	W15:0	W16:0	W17:0	W18:0	W19:24	W20:0	W21:0	W22:0	W23:0	W24:0	W25:0	W26:0	W27:0	W28:0	W29:0	W30:0	W31:7	W32:6210953
single_issue_nums: WS0:1552761	WS1:1552752	WS2:1552752	WS3:1552728	
dual_issue_nums: WS0:0	WS1:0	WS2:0	WS3:0	
traffic_breakdown_coretomem[GLOBAL_ACC_W] = 109070600 {40:2726765,}
traffic_breakdown_memtocore[GLOBAL_ACC_W] = 21814120 {8:2726765,}
maxmflatency = 2181 
max_icnt2mem_latency = 1918 
maxmrqlatency = 3251 
max_icnt2sh_latency = 418 
averagemflatency = 1632 
avg_icnt2mem_latency = 1131 
avg_mrq_latency = 397 
avg_icnt2sh_latency = 22 
mrq_lat_table:95504 	1393 	1733 	11651 	16986 	38395 	68817 	92377 	119798 	145421 	61648 	1133 	0 	0 	0 	0 	0 	0 	0 	0 	0 	0 	0 	0 	0 	0 	0 	0 	0 	0 	0 	0 	
dq_lat_table:0 	0 	0 	0 	0 	0 	0 	0 	0 	0 	0 	0 	0 	0 	0 	0 	0 	0 	0 	0 	0 	0 	0 	0 	0 	0 	0 	0 	0 	0 	0 	0 	
mf_lat_table:0 	0 	0 	0 	0 	0 	0 	2958 	73808 	76434 	2572488 	1077 	0 	0 	0 	0 	0 	0 	0 	0 	0 	0 	0 	0 	0 	0 	0 	0 	0 	0 	0 	0 	
icnt2mem_lat_table:0 	0 	0 	0 	0 	12537 	26642 	50387 	57237 	641801 	1938161 	0 	0 	0 	0 	0 	0 	0 	0 	0 	0 	0 	0 	0 	
icnt2sh_lat_table:0 	868714 	507275 	421890 	364923 	302231 	193501 	58997 	9234 	0 	0 	0 	0 	0 	0 	0 	0 	0 	0 	0 	0 	0 	0 	0 	
mf_lat_pw_table:0 	0 	0 	0 	0 	0 	0 	0 	8 	6 	335 	0 	0 	0 	0 	0 	0 	0 	0 	0 	0 	0 	0 	0 	0 	0 	0 	0 	0 	0 	0 	0 	
maximum concurrent accesses to same row:
dram[0]:        16        16        16        16        16        16        16        16        16        16        16        16        16        16        16        16 
dram[1]:        16        16        16        16        16        16        16        16        16        16        16        16        16        16        16        16 
dram[2]:        16        16        16        16        16        16        16        16        16        16        16        16        16        16        16        16 
dram[3]:        16        16        16        16        16        16        16        16        16        16        16        16        16        16        16        16 
dram[4]:        16        16        16        16        16        16        16        16        16        16        16        16        16        16        16        16 
dram[5]:        16        16        16        16        16        16        16        16        16        16        16        16        16        16        16        16 
dram[6]:        16        16        16        16        16        16        16        16        16        16        16        16        16        16        16        16 
dram[7]:        16        16        16        16        16        16        16        16        16        16        16        16        16        16        16        16 
dram[8]:        16        16        16        16        16        16        16        16        16        16        16        16        16        16        16        16 
dram[9]:        16        16        16        16        16        16        16        16        16        16        16        16        16        16        16        16 
dram[10]:        16        16        16        16        16        16        16        16        16        16        16        16        16        16        16        16 
dram[11]:        16        16        16        16        16        16        16        16        16        16        16        16        16        16        16        16 
maximum service time to same row:
dram[0]:     13736     13848     13743     13701     13446     13463     13290     13288     13190     13075     14180     14211     14042     14063     15286     15238 
dram[1]:     13736     13731     13741     13743     13474     13476     13319     13090     13214     13851     14276     14310     14037     14086     15304     15295 
dram[2]:     13784     13972     13751     13702     13466     13469     13202     13088     13856     13860     14251     14180     14071     13984     15279     15291 
dram[3]:     13806     13788     13730     13877     13455     13458     13187     13290     13874     13198     14222     14114     13953     13839     15341     15335 
dram[4]:     13794     13791     13873     13907     13462     13480     13294     13298     13191     13183     14075     14245     13917     13912     15328     15259 
dram[5]:     13826     13818     13874     13729     13484     13476     13374     13192     13210     14000     14215     14201     13914     13900     15341     15350 
dram[6]:     13810     13897     13870     13903     13472     13493     13197     13297     13975     13952     14221     14131     13866     13961     15311     15335 
dram[7]:     13844     13852     13928     13913     13506     13491     13077     13295     13913     13083     14275     14288     14090     14061     15158     15157 
dram[8]:     13853     13839     13922     13952     13511     13510     13287     13281     13084     13179     14274     14288     14029     14059     15120     15128 
dram[9]:     13859     13896     13969     13950     13510     13511     13349     13192     13080     13994     14279     14195     14107     14063     15234     15262 
dram[10]:     13851     13849     13920     13968     13523     13522     13178     13185     13967     13962     14283     14270     14076     14069     15127     15210 
dram[11]:     13874     13855     13862     13877     13453     13456     13181     13309     13955     13193     14112     14238     14040     14059     15302     15309 
average row accesses per activate:
dram[0]:  6.648438  6.833333  6.909274  7.260593  7.487965  7.427332  7.375810  7.299145  6.802000  6.831326  7.289700  7.423581  6.932927  7.045455  7.467105  7.434498 
dram[1]:  6.512428  6.652344  6.478261  6.953347  7.197895  7.418655  7.172269  7.256900  6.455408  6.593023  7.229787  7.311828  7.270789  6.906883  7.464912  7.649438 
dram[2]:  6.535509  6.849094  6.813121  7.008180  7.393088  7.372845  7.176471  7.221987  6.618677  6.631579  7.153684  7.199152  6.623301  6.851406  7.416122  7.562222 
dram[3]:  6.742574  6.880808  6.991837  7.180294  7.425163  7.587583  7.118998  7.095634  6.792415  6.989733  7.175106  7.186047  6.961225  6.932927  7.467105  7.530973 
dram[4]:  6.759921  6.839357  7.006135  7.273885  7.554084  7.359140  7.330472  6.967347  6.712031  6.802000  7.108787  7.079167  7.355603  7.417391  7.434498  7.370130 
dram[5]:  6.514340  6.648438  6.921212  7.182390  7.368535  7.450980  7.211417  7.215645  6.657534  6.657534  7.041408  6.806000  7.135983  7.133891  7.535398  7.198731 
dram[6]:  6.575290  6.689588  7.018443  7.349785  7.361290  7.465065  7.049587  7.230932  6.685658  6.790419  7.112971  7.260684  7.150943  7.181053  7.457330  7.248936 
dram[7]:  6.667319  7.039256  6.708415  7.039014  7.343348  7.146138  7.051547  6.997951  6.792415  7.147059  7.089770  7.243070  6.756436  7.106250  7.430131  7.334052 
dram[8]:  6.816000  6.868952  6.788119  6.897384  7.390929  7.436956  7.224576  7.196203  6.858871  6.872727  7.151579  7.043478  6.798805  6.993853  7.649438  7.632287 
dram[9]:  6.857143  6.938900  6.911290  7.171548  7.311966  7.343348  7.265393  7.171908  6.884615  7.175106  7.316810  7.056133  7.049587  7.106250  7.591518  7.557778 
dram[10]:  6.628405  6.969325  6.981670  7.112033  7.457516  7.186975  7.059917  7.274468  6.938776  7.192389  7.147368  7.197034  6.849398  7.155136  7.179325  7.209746 
dram[11]:  6.622568  6.594961  7.041068  7.070103  7.345494  7.388769  7.172269  7.497807  6.804000  6.969262  6.715415  6.912601  7.153040  7.215645  7.562222  7.662162 
average row locality = 654856/92417 = 7.085883
number of total memory accesses made:
dram[0]:         0         0         0         0         0         0         0         0         0         0         0         0         0         0         0         0 
dram[1]:         0         0         0         0         0         0         0         0         0         0         0         0         0         0         0         0 
dram[2]:         0         0         0         0         0         0         0         0         0         0         0         0         0         0         0         0 
dram[3]:         0         0         0         0         0         0         0         0         0         0         0         0         0         0         0         0 
dram[4]:         0         0         0         0         0         0         0         0         0         0         0         0         0         0         0         0 
dram[5]:         0         0         0         0         0         0         0         0         0         0         0         0         0         0         0         0 
dram[6]:         0         0         0         0         0         0         0         0         0         0         0         0         0         0         0         0 
dram[7]:         0         0         0         0         0         0         0         0         0         0         0         0         0         0         0         0 
dram[8]:         0         0         0         0         0         0         0         0         0         0         0         0         0         0         0         0 
dram[9]:         0         0         0         0         0         0         0         0         0         0         0         0         0         0         0         0 
dram[10]:         0         0         0         0         0         0         0         0         0         0         0         0         0         0         0         0 
dram[11]:         0         0         0         0         0         0         0         0         0         0         0         0         0         0         0         0 
total accesses: 0
min_bank_accesses = 0!
min_chip_accesses = 0!
number of total read accesses:
dram[0]:         0         0         0         0         0         0         0         0         0         0         0         0         0         0         0         0 
dram[1]:         0         0         0         0         0         0         0         0         0         0         0         0         0         0         0         0 
dram[2]:         0         0         0         0         0         0         0         0         0         0         0         0         0         0         0         0 
dram[3]:         0         0         0         0         0         0         0         0         0         0         0         0         0         0         0         0 
dram[4]:         0         0         0         0         0         0         0         0         0         0         0         0         0         0         0         0 
dram[5]:         0         0         0         0         0         0         0         0         0         0         0         0         0         0         0         0 
dram[6]:         0         0         0         0         0         0         0         0         0         0         0         0         0         0         0         0 
dram[7]:         0         0         0         0         0         0         0         0         0         0         0         0         0         0         0         0 
dram[8]:         0         0         0         0         0         0         0         0         0         0         0         0         0         0         0         0 
dram[9]:         0         0         0         0         0         0         0         0         0         0         0         0         0         0         0         0 
dram[10]:         0         0         0         0         0         0         0         0         0         0         0         0         0         0         0         0 
dram[11]:         0         0         0         0         0         0         0         0         0         0         0         0         0         0         0         0 
total dram reads = 0
min_bank_accesses = 0!
min_chip_accesses = 0!
number of total write accesses:
dram[0]:     13616     13612     13708     13708     13688     13696     13696     13696     13648     13644     13632     13628     13648     13648     13632     13632 
dram[1]:     13624     13624     13708     13712     13696     13704     13696     13696     13632     13648     13628     13628     13648     13648     13624     13620 
dram[2]:     13624     13620     13708     13708     13692     13700     13696     13696     13648     13644     13628     13632     13648     13648     13620     13620 
dram[3]:     13624     13628     13704     13700     13692     13688     13696     13696     13648     13648     13632     13632     13648     13648     13620     13624 
dram[4]:     13628     13628     13704     13704     13688     13688     13696     13696     13652     13648     13632     13632     13652     13652     13628     13624 
dram[5]:     13628     13628     13704     13704     13692     13692     13696     13696     13640     13632     13632     13632     13648     13648     13624     13624 
dram[6]:     13628     13628     13700     13700     13692     13692     13696     13696     13640     13636     13632     13632     13648     13648     13632     13628 
dram[7]:     13628     13632     13712     13712     13688     13692     13696     13696     13652     13652     13628     13628     13648     13644     13628     13628 
[...]

------------------------------------------------------------------------

Row_Buffer_Locality = 0.221294
Row_Buffer_Locality_read = 0.242970
Row_Buffer_Locality_write = 0.075960
Bank_Level_Parallism = 6.748415
Bank_Level_Parallism_Col = 2.284772
Bank_Level_Parallism_Ready = 1.324117
write_to_read_ratio_blp_rw_average = 0.194528
GrpLevelPara = 1.920478 

BW Util details:
bwutil = 0.243139 
total_CMD = 150487913 
util_bw = 36589556 
Wasted_Col = 66278931 
Wasted_Row = 8488326 
Idle = 39131100 

BW Util Bottlenecks: 
RCDc_limit = 94655628 
RCDWRc_limit = 9599203 
WTRc_limit = 34251633 
RTWc_limit = 25767419 
CCDLc_limit = 6829177 
rwq = 0 
CCDLc_limit_alone = 4966383 
WTRc_limit_alone = 33317195 
RTWc_limit_alone = 24839063 

Commands details: 
total_CMD = 150487913 
n_nop = 129514659 
Read = 7505522 
Write = 0 
L2_Alloc = 0 
L2_WB = 1641867 
n_act = 6716279 
n_pre = 6716263 
n_ref = 0 
n_req = 8624922 
total_req = 9147389 

Dual Bus Interface Util: 
issued_total_row = 13432542 
issued_total_col = 9147389 
Row_Bus_Util =  0.089260 
CoL_Bus_Util = 0.060785 
Either_Row_CoL_Bus_Util = 0.139368 
Issued_on_Two_Bus_Simul_Util = 0.010676 
issued_two_Eff = 0.076606 
queue_avg = 8.712392 


dram_util_bins: 0 0 0 0 0 0 0 0 0 0
dram_eff_bins: 0 0 0 0 0 0 0 0 0 0
mrqq: max=64 avg=8.71239
Memory Partition 9: 
Cache L2_bank_018:
MSHR contents

Cache L2_bank_019:
MSHR contents

In Dram Latency Queue (total = 0): 
DRAM[9]: 16 bks, busW=2 BL=16 CL=24, tRRD=12 tCCD=4, tRCD=24 tRAS=55 tRP=24 tRC=78
n_cmd=150487913 n_nop=129564920 n_act=6698020 n_pre=6698004 n_ref_event=0 n_req=8610136 n_rd=7491743 n_rd_L2_A=0 n_write=0 n_wr_bk=1639220 bw_util=0.2427
n_activity=117183048 dram_eff=0.3117
bk0: 465926a 104411627i bk1: 465164a 104429731i bk2: 482847a 102770045i bk3: 476989a 103416220i bk4: 472214a 104088946i bk5: 474002a 103741159i bk6: 469626a 104415835i bk7: 466175a 104764101i bk8: 462170a 104963256i bk9: 465427a 104630272i bk10: 467416a 104416480i bk11: 463280a 104676466i bk12: 461136a 105448880i bk13: 458600a 105648884i bk14: 471370a 103844081i bk15: 469401a 104092079i 

------------------------------------------------------------------------

Row_Buffer_Locality = 0.222077
Row_Buffer_Locality_read = 0.243825
Row_Buffer_Locality_write = 0.076399
Bank_Level_Parallism = 6.755733
Bank_Level_Parallism_Col = 2.285508
Bank_Level_Parallism_Ready = 1.325456
write_to_read_ratio_blp_rw_average = 0.194988
GrpLevelPara = 1.921269 

BW Util details:
bwutil = 0.242703 
total_CMD = 150487913 
util_bw = 36523852 
Wasted_Col = 66133280 
Wasted_Row = 8550342 
Idle = 39280439 

BW Util Bottlenecks: 
RCDc_limit = 94401363 
RCDWRc_limit = 9587644 
WTRc_limit = 34070795 
RTWc_limit = 25766967 
CCDLc_limit = 6753213 
rwq = 0 
CCDLc_limit_alone = 4892980 
WTRc_limit_alone = 33140893 
RTWc_limit_alone = 24836636 

Commands details: 
total_CMD = 150487913 
n_nop = 129564920 
Read = 7491743 
Write = 0 
L2_Alloc = 0 
L2_WB = 1639220 
n_act = 6698020 
n_pre = 6698004 
n_ref = 0 
n_req = 8610136 
total_req = 9130963 

Dual Bus Interface Util: 
issued_total_row = 13396024 
issued_total_col = 9130963 
Row_Bus_Util =  0.089017 
CoL_Bus_Util = 0.060676 
Either_Row_CoL_Bus_Util = 0.139034 
Issued_on_Two_Bus_Simul_Util = 0.010659 
issued_two_Eff = 0.076662 
queue_avg = 8.883879 


dram_util_bins: 0 0 0 0 0 0 0 0 0 0
dram_eff_bins: 0 0 0 0 0 0 0 0 0 0
mrqq: max=64 avg=8.88388
Memory Partition 10: 
Cache L2_bank_020:
MSHR contents

Cache L2_bank_021:
MSHR contents

In Dram Latency Queue (total = 0): 
DRAM[10]: 16 bks, busW=2 BL=16 CL=24, tRRD=12 tCCD=4, tRCD=24 tRAS=55 tRP=24 tRC=78
n_cmd=150487913 n_nop=129606858 n_act=6680361 n_pre=6680345 n_ref_event=0 n_req=8583700 n_rd=7474777 n_rd_L2_A=0 n_write=0 n_wr_bk=1630753 bw_util=0.242
n_activity=117267172 dram_eff=0.3106
bk0: 466191a 105005030i bk1: 463748a 105322343i bk2: 468856a 105199685i bk3: 475886a 104513022i bk4: 468681a 105026386i bk5: 476136a 104247815i bk6: 467901a 105214510i bk7: 469399a 105084084i bk8: 461231a 105913740i bk9: 461320a 105866893i bk10: 463493a 105542892i bk11: 467961a 105099468i bk12: 460893a 106084872i bk13: 460259a 106174472i bk14: 469626a 104970517i bk15: 473196a 104543787i 

------------------------------------------------------------------------

Row_Buffer_Locality = 0.221739
Row_Buffer_Locality_read = 0.243330
Row_Buffer_Locality_write = 0.076201
Bank_Level_Parallism = 6.621747
Bank_Level_Parallism_Col = 2.275605
Bank_Level_Parallism_Ready = 1.325711
write_to_read_ratio_blp_rw_average = 0.193501
GrpLevelPara = 1.913159 

BW Util details:
bwutil = 0.242027 
total_CMD = 150487913 
util_bw = 36422120 
Wasted_Col = 66259400 
Wasted_Row = 8623654 
Idle = 39182739 

BW Util Bottlenecks: 
RCDc_limit = 94464319 
RCDWRc_limit = 9518865 
WTRc_limit = 33860419 
RTWc_limit = 25446371 
CCDLc_limit = 6717530 
rwq = 0 
CCDLc_limit_alone = 4876883 
WTRc_limit_alone = 32935116 
RTWc_limit_alone = 24531027 

Commands details: 
total_CMD = 150487913 
n_nop = 129606858 
Read = 7474777 
Write = 0 
L2_Alloc = 0 
L2_WB = 1630753 
n_act = 6680361 
n_pre = 6680345 
n_ref = 0 
n_req = 8583700 
total_req = 9105530 

Dual Bus Interface Util: 
issued_total_row = 13360706 
issued_total_col = 9105530 
Row_Bus_Util =  0.088783 
CoL_Bus_Util = 0.060507 
Either_Row_CoL_Bus_Util = 0.138756 
Issued_on_Two_Bus_Simul_Util = 0.010534 
issued_two_Eff = 0.075915 
queue_avg = 8.249902 


dram_util_bins: 0 0 0 0 0 0 0 0 0 0
dram_eff_bins: 0 0 0 0 0 0 0 0 0 0
mrqq: max=64 avg=8.2499
Memory Partition 11: 
Cache L2_bank_022:
MSHR contents

Cache L2_bank_023:
MSHR contents

In Dram Latency Queue (total = 0): 
DRAM[11]: 16 bks, busW=2 BL=16 CL=24, tRRD=12 tCCD=4, tRCD=24 tRAS=55 tRP=24 tRC=78
n_cmd=150487913 n_nop=129646969 n_act=6663599 n_pre=6663583 n_ref_event=0 n_req=8564584 n_rd=7453519 n_rd_L2_A=0 n_write=0 n_wr_bk=1632134 bw_util=0.2415
n_activity=117119331 dram_eff=0.3103
bk0: 464390a 105438017i bk1: 463156a 105429737i bk2: 475066a 104484644i bk3: 471937a 104633753i bk4: 466401a 105293945i bk5: 475897a 104309696i bk6: 470029a 104954482i bk7: 462624a 105639654i bk8: 459904a 106078570i bk9: 459269a 106117557i bk10: 462358a 105911904i bk11: 465010a 105523628i bk12: 461658a 105900380i bk13: 458479a 106267438i bk14: 470412a 105035784i bk15: 466929a 105002390i 

------------------------------------------------------------------------

Row_Buffer_Locality = 0.221959
Row_Buffer_Locality_read = 0.243740
Row_Buffer_Locality_write = 0.075842
Bank_Level_Parallism = 6.609910
Bank_Level_Parallism_Col = 2.275632
Bank_Level_Parallism_Ready = 1.325746
write_to_read_ratio_blp_rw_average = 0.193748
GrpLevelPara = 1.912988 

BW Util details:
bwutil = 0.241499 
total_CMD = 150487913 
util_bw = 36342612 
Wasted_Col = 66155331 
Wasted_Row = 8642253 
Idle = 39347717 

BW Util Bottlenecks: 
RCDc_limit = 94175455 
RCDWRc_limit = 9550679 
WTRc_limit = 33947726 
RTWc_limit = 25416953 
CCDLc_limit = 6718226 
rwq = 0 
CCDLc_limit_alone = 4876301 
WTRc_limit_alone = 33018609 
RTWc_limit_alone = 24504145 

Commands details: 
total_CMD = 150487913 
n_nop = 129646969 
Read = 7453519 
Write = 0 
L2_Alloc = 0 
L2_WB = 1632134 
n_act = 6663599 
n_pre = 6663583 
n_ref = 0 
n_req = 8564584 
total_req = 9085653 

Dual Bus Interface Util: 
issued_total_row = 13327182 
issued_total_col = 9085653 
Row_Bus_Util =  0.088560 
CoL_Bus_Util = 0.060375 
Either_Row_CoL_Bus_Util = 0.138489 
Issued_on_Two_Bus_Simul_Util = 0.010445 
issued_two_Eff = 0.075423 
queue_avg = 8.194345 


dram_util_bins: 0 0 0 0 0 0 0 0 0 0
dram_eff_bins: 0 0 0 0 0 0 0 0 0 0
mrqq: max=64 avg=8.19434

========= L2 cache stats =========
L2_cache_bank[0]: Access = 7118497, Miss = 3959518, Miss_rate = 0.556, Pending_hits = 23452, Reservation_fails = 7891
L2_cache_bank[1]: Access = 7019725, Miss = 3955829, Miss_rate = 0.564, Pending_hits = 21391, Reservation_fails = 9492
L2_cache_bank[2]: Access = 7114990, Miss = 3973809, Miss_rate = 0.559, Pending_hits = 21055, Reservation_fails = 7844
L2_cache_bank[3]: Access = 7057933, Miss = 3965435, Miss_rate = 0.562, Pending_hits = 21016, Reservation_fails = 5908
L2_cache_bank[4]: Access = 7129603, Miss = 3955061, Miss_rate = 0.555, Pending_hits = 20718, Reservation_fails = 7585
L2_cache_bank[5]: Access = 7074971, Miss = 3977306, Miss_rate = 0.562, Pending_hits = 21202, Reservation_fails = 7250
L2_cache_bank[6]: Access = 7098730, Miss = 3963304, Miss_rate = 0.558, Pending_hits = 21999, Reservation_fails = 6393
L2_cache_bank[7]: Access = 7128909, Miss = 3979262, Miss_rate = 0.558, Pending_hits = 20933, Reservation_fails = 6784
L2_cache_bank[8]: Access = 7123471, Miss = 3965577, Miss_rate = 0.557, Pending_hits = 22311, Reservation_fails = 7411
L2_cache_bank[9]: Access = 7123363, Miss = 3961840, Miss_rate = 0.556, Pending_hits = 20345, Reservation_fails = 6376
L2_cache_bank[10]: Access = 7109731, Miss = 3977382, Miss_rate = 0.559, Pending_hits = 21648, Reservation_fails = 6339
L2_cache_bank[11]: Access = 7043892, Miss = 3962671, Miss_rate = 0.563, Pending_hits = 21015, Reservation_fails = 5311
L2_cache_bank[12]: Access = 7089696, Miss = 3953118, Miss_rate = 0.558, Pending_hits = 20576, Reservation_fails = 8018
L2_cache_bank[13]: Access = 7087222, Miss = 3965384, Miss_rate = 0.560, Pending_hits = 20578, Reservation_fails = 5044
L2_cache_bank[14]: Access = 10643267, Miss = 3959179, Miss_rate = 0.372, Pending_hits = 21825, Reservation_fails = 6117
L2_cache_bank[15]: Access = 7130227, Miss = 3972099, Miss_rate = 0.557, Pending_hits = 21374, Reservation_fails = 6645
L2_cache_bank[16]: Access = 11584949, Miss = 3979853, Miss_rate = 0.344, Pending_hits = 23052, Reservation_fails = 7102
L2_cache_bank[17]: Access = 7086225, Miss = 3974081, Miss_rate = 0.561, Pending_hits = 20569, Reservation_fails = 6708
L2_cache_bank[18]: Access = 7124874, Miss = 3977677, Miss_rate = 0.558, Pending_hits = 21529, Reservation_fails = 8527
L2_cache_bank[19]: Access = 7027551, Miss = 3963472, Miss_rate = 0.564, Pending_hits = 21420, Reservation_fails = 4891
L2_cache_bank[20]: Access = 7066397, Miss = 3950888, Miss_rate = 0.559, Pending_hits = 20700, Reservation_fails = 5225
L2_cache_bank[21]: Access = 7083935, Miss = 3971466, Miss_rate = 0.561, Pending_hits = 21050, Reservation_fails = 10708
L2_cache_bank[22]: Access = 7050566, Miss = 3954078, Miss_rate = 0.561, Pending_hits = 21474, Reservation_fails = 6909
L2_cache_bank[23]: Access = 7038580, Miss = 3947746, Miss_rate = 0.561, Pending_hits = 20386, Reservation_fails = 4034
L2_total_cache_accesses = 178157304
L2_total_cache_misses = 95166035
L2_total_cache_miss_rate = 0.5342
L2_total_cache_pending_hits = 511618
L2_total_cache_reservation_fails = 164512
L2_total_cache_breakdown:
	L2_cache_stats_breakdown[GLOBAL_ACC_R][HIT] = 70906915
	L2_cache_stats_breakdown[GLOBAL_ACC_R][HIT_RESERVED] = 511131
	L2_cache_stats_breakdown[GLOBAL_ACC_R][MISS] = 54337213
	L2_cache_stats_breakdown[GLOBAL_ACC_R][RESERVATION_FAIL] = 164512
	L2_cache_stats_breakdown[GLOBAL_ACC_R][SECTOR_MISS] = 35446867
	L2_cache_stats_breakdown[GLOBAL_ACC_R][MSHR_HIT] = 511135
	L2_cache_stats_breakdown[LOCAL_ACC_R][HIT] = 0
	L2_cache_stats_breakdown[LOCAL_ACC_R][HIT_RESERVED] = 0
	L2_cache_stats_breakdown[LOCAL_ACC_R][MISS] = 0
	L2_cache_stats_breakdown[LOCAL_ACC_R][RESERVATION_FAIL] = 0
	L2_cache_stats_breakdown[LOCAL_ACC_R][SECTOR_MISS] = 0
	L2_cache_stats_breakdown[LOCAL_ACC_R][MSHR_HIT] = 0
	L2_cache_stats_breakdown[CONST_ACC_R][HIT] = 0
	L2_cache_stats_breakdown[CONST_ACC_R][HIT_RESERVED] = 0
	L2_cache_stats_breakdown[CONST_ACC_R][MISS] = 0
	L2_cache_stats_breakdown[CONST_ACC_R][RESERVATION_FAIL] = 0
	L2_cache_stats_breakdown[CONST_ACC_R][SECTOR_MISS] = 0
	L2_cache_stats_breakdown[CONST_ACC_R][MSHR_HIT] = 0
	L2_cache_stats_breakdown[TEXTURE_ACC_R][HIT] = 0
	L2_cache_stats_breakdown[TEXTURE_ACC_R][HIT_RESERVED] = 0
	L2_cache_stats_breakdown[TEXTURE_ACC_R][MISS] = 0
	L2_cache_stats_breakdown[TEXTURE_ACC_R][RESERVATION_FAIL] = 0
	L2_cache_stats_breakdown[TEXTURE_ACC_R][SECTOR_MISS] = 0
	L2_cache_stats_breakdown[TEXTURE_ACC_R][MSHR_HIT] = 0
	L2_cache_stats_breakdown[GLOBAL_ACC_W][HIT] = 11572736
	L2_cache_stats_breakdown[GLOBAL_ACC_W][HIT_RESERVED] = 487
	L2_cache_stats_breakdown[GLOBAL_ACC_W][MISS] = 2496471
	L2_cache_stats_breakdown[GLOBAL_ACC_W][RESERVATION_FAIL] = 0
	L2_cache_stats_breakdown[GLOBAL_ACC_W][SECTOR_MISS] = 2885484
	L2_cache_stats_breakdown[GLOBAL_ACC_W][MSHR_HIT] = 0
	L2_cache_stats_breakdown[LOCAL_ACC_W][HIT] = 0
	L2_cache_stats_breakdown[LOCAL_ACC_W][HIT_RESERVED] = 0
	L2_cache_stats_breakdown[LOCAL_ACC_W][MISS] = 0
	L2_cache_stats_breakdown[LOCAL_ACC_W][RESERVATION_FAIL] = 0
	L2_cache_stats_breakdown[LOCAL_ACC_W][SECTOR_MISS] = 0
	L2_cache_stats_breakdown[LOCAL_ACC_W][MSHR_HIT] = 0
	L2_cache_stats_breakdown[L1_WRBK_ACC][HIT] = 0
	L2_cache_stats_breakdown[L1_WRBK_ACC][HIT_RESERVED] = 0
	L2_cache_stats_breakdown[L1_WRBK_ACC][MISS] = 0
	L2_cache_stats_breakdown[L1_WRBK_ACC][RESERVATION_FAIL] = 0
	L2_cache_stats_breakdown[L1_WRBK_ACC][SECTOR_MISS] = 0
	L2_cache_stats_breakdown[L1_WRBK_ACC][MSHR_HIT] = 0
	L2_cache_stats_breakdown[L2_WRBK_ACC][HIT] = 0
	L2_cache_stats_breakdown[L2_WRBK_ACC][HIT_RESERVED] = 0
	L2_cache_stats_breakdown[L2_WRBK_ACC][MISS] = 0
	L2_cache_stats_breakdown[L2_WRBK_ACC][RESERVATION_FAIL] = 0
	L2_cache_stats_breakdown[L2_WRBK_ACC][SECTOR_MISS] = 0
	L2_cache_stats_breakdown[L2_WRBK_ACC][MSHR_HIT] = 0
	L2_cache_stats_breakdown[INST_ACC_R][HIT] = 0
	L2_cache_stats_breakdown[INST_ACC_R][HIT_RESERVED] = 0
	L2_cache_stats_breakdown[INST_ACC_R][MISS] = 0
	L2_cache_stats_breakdown[INST_ACC_R][RESERVATION_FAIL] = 0
	L2_cache_stats_breakdown[INST_ACC_R][SECTOR_MISS] = 0
	L2_cache_stats_breakdown[INST_ACC_R][MSHR_HIT] = 0
	L2_cache_stats_breakdown[L1_WR_ALLOC_R][HIT] = 0
	L2_cache_stats_breakdown[L1_WR_ALLOC_R][HIT_RESERVED] = 0
	L2_cache_stats_breakdown[L1_WR_ALLOC_R][MISS] = 0
	L2_cache_stats_breakdown[L1_WR_ALLOC_R][RESERVATION_FAIL] = 0
	L2_cache_stats_breakdown[L1_WR_ALLOC_R][SECTOR_MISS] = 0
	L2_cache_stats_breakdown[L1_WR_ALLOC_R][MSHR_HIT] = 0
	L2_cache_stats_breakdown[L2_WR_ALLOC_R][HIT] = 0
	L2_cache_stats_breakdown[L2_WR_ALLOC_R][HIT_RESERVED] = 0
	L2_cache_stats_breakdown[L2_WR_ALLOC_R][MISS] = 0
	L2_cache_stats_breakdown[L2_WR_ALLOC_R][RESERVATION_FAIL] = 0
	L2_cache_stats_breakdown[L2_WR_ALLOC_R][SECTOR_MISS] = 0
	L2_cache_stats_breakdown[L2_WR_ALLOC_R][MSHR_HIT] = 0
	L2_cache_stats_breakdown[GLOBAL_ACC_R][TOTAL_ACCESS] = 161202126
	L2_cache_stats_breakdown[GLOBAL_ACC_W][TOTAL_ACCESS] = 16955178
L2_total_cache_reservation_fail_breakdown:
	L2_cache_stats_fail_breakdown[GLOBAL_ACC_R][MSHR_ENRTY_FAIL] = 1480
	L2_cache_stats_fail_breakdown[GLOBAL_ACC_R][MSHR_MERGE_ENRTY_FAIL] = 163032
L2_cache_data_port_util = 0.061
L2_cache_fill_port_util = 0.064

icnt_total_pkts_mem_to_simt=178157304
icnt_total_pkts_simt_to_mem=178157304
LD_mem_lat_dist  0 0 0 0 0 0 0 0 0 0 0 0 0 0 0 0 0 0 0 0 0 0 0 0 0 0 0
ST_mem_lat_dist  0 0 0 0 0 0 0 0 0 0 0 0 0 0 0 0 0 0 0 0 0 0 0 0 0 0 0
----------------------------Interconnect-DETAILS--------------------------------
Req_Network_injected_packets_num = 178157304
Req_Network_cycles = 58681936
Req_Network_injected_packets_per_cycle =       3.0360 
Req_Network_conflicts_per_cycle =       0.3944
Req_Network_conflicts_per_cycle_util =       0.5197
Req_Bank_Level_Parallism =       4.0004
Req_Network_in_buffer_full_per_cycle =       0.0000
Req_Network_in_buffer_avg_util =       0.1179
Req_Network_out_buffer_full_per_cycle =       0.0013
Req_Network_out_buffer_avg_util =       2.5067

Reply_Network_injected_packets_num = 178157304
Reply_Network_cycles = 58681936
Reply_Network_injected_packets_per_cycle =        3.0360
Reply_Network_conflicts_per_cycle =        1.3649
Reply_Network_conflicts_per_cycle_util =       1.7927
Reply_Bank_Level_Parallism =       3.9876
Reply_Network_in_buffer_full_per_cycle =       0.0000
Reply_Network_in_buffer_avg_util =       0.1889
Reply_Network_out_buffer_full_per_cycle =       0.0000
Reply_Network_out_buffer_avg_util =       0.1012
----------------------------END-of-Interconnect-DETAILS-------------------------


gpgpu_simulation_time = 3 days, 19 hrs, 17 min, 27 sec (328647 sec)
gpgpu_simulation_rate = 15143 (inst/sec)
gpgpu_simulation_rate = 178 (cycle/sec)
gpgpu_silicon_slowdown = 7668539x
GPGPU-Sim PTX: Setting up arguments for 4 bytes starting at 0x7ffce8d0cebc..
GPGPU-Sim PTX: Setting up arguments for 8 bytes starting at 0x7ffce8d0ceb0..
GPGPU-Sim PTX: Setting up arguments for 8 bytes starting at 0x7ffce8d0cea8..
GPGPU-Sim PTX: Setting up arguments for 4 bytes starting at 0x7ffce8d0ceb8..
GPGPU-Sim PTX: Setting up arguments for 8 bytes starting at 0x7ffce8d0cea0..
GPGPU-Sim PTX: Setting up arguments for 8 bytes starting at 0x7ffce8d0ce98..
GPGPU-Sim PTX: Setting up arguments for 8 bytes starting at 0x7ffce8d0ce90..
GPGPU-Sim PTX: Setting up arguments for 8 bytes starting at 0x7ffce8d0ce88..
GPGPU-Sim PTX: Setting up arguments for 4 bytes starting at 0x7ffce8d0cf70..
GPGPU-Sim PTX: Setting up arguments for 8 bytes starting at 0x7ffce8d0ce80..

GPGPU-Sim PTX: cudaLaunch for 0x0x56530df6d2ca (mode=performance simulation) on stream 0
GPGPU-Sim PTX: PDOM analysis already done for _Z10bc_reverseiPKmPKiiPiPfS3_S3_iS4_ 
GPGPU-Sim PTX: pushing kernel '_Z10bc_reverseiPKmPKiiPiPfS3_S3_iS4_' to stream 0, gridDim= (4590,1,1) blockDim = (256,1,1) 
GPGPU-Sim uArch: Shader 18 bind to kernel 42 '_Z10bc_reverseiPKmPKiiPiPfS3_S3_iS4_'
GPGPU-Sim: Reconfigure L1 cache to 64KB
GPGPU-Sim uArch: Shader 19 bind to kernel 42 '_Z10bc_reverseiPKmPKiiPiPfS3_S3_iS4_'
GPGPU-Sim uArch: Shader 20 bind to kernel 42 '_Z10bc_reverseiPKmPKiiPiPfS3_S3_iS4_'
GPGPU-Sim uArch: Shader 21 bind to kernel 42 '_Z10bc_reverseiPKmPKiiPiPfS3_S3_iS4_'
GPGPU-Sim uArch: Shader 22 bind to kernel 42 '_Z10bc_reverseiPKmPKiiPiPfS3_S3_iS4_'
GPGPU-Sim uArch: Shader 23 bind to kernel 42 '_Z10bc_reverseiPKmPKiiPiPfS3_S3_iS4_'
GPGPU-Sim uArch: Shader 24 bind to kernel 42 '_Z10bc_reverseiPKmPKiiPiPfS3_S3_iS4_'
GPGPU-Sim uArch: Shader 25 bind to kernel 42 '_Z10bc_reverseiPKmPKiiPiPfS3_S3_iS4_'
GPGPU-Sim uArch: Shader 26 bind to kernel 42 '_Z10bc_reverseiPKmPKiiPiPfS3_S3_iS4_'
GPGPU-Sim uArch: Shader 27 bind to kernel 42 '_Z10bc_reverseiPKmPKiiPiPfS3_S3_iS4_'
GPGPU-Sim uArch: Shader 28 bind to kernel 42 '_Z10bc_reverseiPKmPKiiPiPfS3_S3_iS4_'
GPGPU-Sim uArch: Shader 29 bind to kernel 42 '_Z10bc_reverseiPKmPKiiPiPfS3_S3_iS4_'
GPGPU-Sim uArch: Shader 0 bind to kernel 42 '_Z10bc_reverseiPKmPKiiPiPfS3_S3_iS4_'
GPGPU-Sim uArch: Shader 1 bind to kernel 42 '_Z10bc_reverseiPKmPKiiPiPfS3_S3_iS4_'
GPGPU-Sim uArch: Shader 2 bind to kernel 42 '_Z10bc_reverseiPKmPKiiPiPfS3_S3_iS4_'
GPGPU-Sim uArch: Shader 3 bind to kernel 42 '_Z10bc_reverseiPKmPKiiPiPfS3_S3_iS4_'
GPGPU-Sim uArch: Shader 4 bind to kernel 42 '_Z10bc_reverseiPKmPKiiPiPfS3_S3_iS4_'
GPGPU-Sim uArch: Shader 5 bind to kernel 42 '_Z10bc_reverseiPKmPKiiPiPfS3_S3_iS4_'
GPGPU-Sim uArch: Shader 6 bind to kernel 42 '_Z10bc_reverseiPKmPKiiPiPfS3_S3_iS4_'
GPGPU-Sim uArch: Shader 7 bind to kernel 42 '_Z10bc_reverseiPKmPKiiPiPfS3_S3_iS4_'
GPGPU-Sim uArch: Shader 8 bind to kernel 42 '_Z10bc_reverseiPKmPKiiPiPfS3_S3_iS4_'
GPGPU-Sim uArch: Shader 9 bind to kernel 42 '_Z10bc_reverseiPKmPKiiPiPfS3_S3_iS4_'
GPGPU-Sim uArch: Shader 10 bind to kernel 42 '_Z10bc_reverseiPKmPKiiPiPfS3_S3_iS4_'
GPGPU-Sim uArch: Shader 11 bind to kernel 42 '_Z10bc_reverseiPKmPKiiPiPfS3_S3_iS4_'
GPGPU-Sim uArch: Shader 12 bind to kernel 42 '_Z10bc_reverseiPKmPKiiPiPfS3_S3_iS4_'
GPGPU-Sim uArch: Shader 13 bind to kernel 42 '_Z10bc_reverseiPKmPKiiPiPfS3_S3_iS4_'
GPGPU-Sim uArch: Shader 14 bind to kernel 42 '_Z10bc_reverseiPKmPKiiPiPfS3_S3_iS4_'
GPGPU-Sim uArch: Shader 15 bind to kernel 42 '_Z10bc_reverseiPKmPKiiPiPfS3_S3_iS4_'
GPGPU-Sim uArch: Shader 16 bind to kernel 42 '_Z10bc_reverseiPKmPKiiPiPfS3_S3_iS4_'
GPGPU-Sim uArch: Shader 17 bind to kernel 42 '_Z10bc_reverseiPKmPKiiPiPfS3_S3_iS4_'
