

        *** GPGPU-Sim Simulator Version 4.2.0  [build gpgpu-sim_git-commit-5e9d31b8132651796656877ecb58fde27177ba7a_modified_303.0] ***


GPGPU-Sim PTX: simulation mode 0 (can change with PTX_SIM_MODE_FUNC environment variable:
               1=functional simulation only, 0=detailed performance simulator)
GPGPU-Sim PTX: overriding embedded ptx with ptx file (PTX_SIM_USE_PTX_FILE is set)
GPGPU-Sim: Configuration options:

-save_embedded_ptx                      0 # saves ptx files embedded in binary as <n>.ptx
-keep                                   0 # keep intermediate files created by GPGPU-Sim when interfacing with external programs
-gpgpu_ptx_save_converted_ptxplus                    0 # Saved converted ptxplus to a file
-gpgpu_occupancy_sm_number                   75 # The SM number to pass to ptxas when getting register usage for computing GPU occupancy. This parameter is required in the config.
-ptx_opcode_latency_int           4,4,4,4,21 # Opcode latencies for integers <ADD,MAX,MUL,MAD,DIV,SHFL>Default 1,1,19,25,145,32
-ptx_opcode_latency_fp           4,4,4,4,39 # Opcode latencies for single precision floating points <ADD,MAX,MUL,MAD,DIV>Default 1,1,1,1,30
-ptx_opcode_latency_dp      64,64,64,64,330 # Opcode latencies for double precision floating points <ADD,MAX,MUL,MAD,DIV>Default 8,8,8,8,335
-ptx_opcode_latency_sfu                   21 # Opcode latencies for SFU instructionsDefault 8
-ptx_opcode_latency_tesnor                   64 # Opcode latencies for Tensor instructionsDefault 64
-ptx_opcode_initiation_int            2,2,2,2,2 # Opcode initiation intervals for integers <ADD,MAX,MUL,MAD,DIV,SHFL>Default 1,1,4,4,32,4
-ptx_opcode_initiation_fp            2,2,2,2,4 # Opcode initiation intervals for single precision floating points <ADD,MAX,MUL,MAD,DIV>Default 1,1,1,1,5
-ptx_opcode_initiation_dp      64,64,64,64,130 # Opcode initiation intervals for double precision floating points <ADD,MAX,MUL,MAD,DIV>Default 8,8,8,8,130
-ptx_opcode_initiation_sfu                    8 # Opcode initiation intervals for sfu instructionsDefault 8
-ptx_opcode_initiation_tensor                   64 # Opcode initiation intervals for tensor instructionsDefault 64
-cdp_latency         7200,8000,100,12000,1600 # CDP API latency <cudaStreamCreateWithFlags, cudaGetParameterBufferV2_init_perWarp, cudaGetParameterBufferV2_perKernel, cudaLaunchDeviceV2_init_perWarp, cudaLaunchDevicV2_perKernel>Default 7200,8000,100,12000,1600
-network_mode                           2 # Interconnection network mode
-inter_config_file                   mesh # Interconnection network config file
-icnt_in_buffer_limit                  512 # in_buffer_limit
-icnt_out_buffer_limit                  512 # out_buffer_limit
-icnt_subnets                           2 # subnets
-icnt_arbiter_algo                      1 # arbiter_algo
-icnt_verbose                           0 # inct_verbose
-icnt_grant_cycles                      1 # grant_cycles
-gpgpu_ptx_use_cuobjdump                    1 # Use cuobjdump to extract ptx and sass from binaries
-gpgpu_experimental_lib_support                    0 # Try to extract code from cuda libraries [Broken because of unknown cudaGetExportTable]
-checkpoint_option                      0 #  checkpointing flag (0 = no checkpoint)
-checkpoint_kernel                      1 #  checkpointing during execution of which kernel (1- 1st kernel)
-checkpoint_CTA                         0 #  checkpointing after # of CTA (< less than total CTA)
-resume_option                          0 #  resume flag (0 = no resume)
-resume_kernel                          0 #  Resume from which kernel (1= 1st kernel)
-resume_CTA                             0 #  resume from which CTA 
-checkpoint_CTA_t                       0 #  resume from which CTA 
-checkpoint_insn_Y                      0 #  resume from which CTA 
-gpgpu_ptx_convert_to_ptxplus                    0 # Convert SASS (native ISA) to ptxplus and run ptxplus
-gpgpu_ptx_force_max_capability                   75 # Force maximum compute capability
-gpgpu_ptx_inst_debug_to_file                    0 # Dump executed instructions' debug information to file
-gpgpu_ptx_inst_debug_file       inst_debug.txt # Executed instructions' debug output file
-gpgpu_ptx_inst_debug_thread_uid                    1 # Thread UID for executed instructions' debug output
-gpgpu_simd_model                       1 # 1 = post-dominator
-gpgpu_shader_core_pipeline              1024:32 # shader core pipeline config, i.e., {<nthread>:<warpsize>}
-gpgpu_tex_cache:l1  N:4:128:256,L:R:m:N:L,T:512:8,128:2 # per-shader L1 texture cache  (READ-ONLY) config  {<nsets>:<bsize>:<assoc>,<rep>:<wr>:<alloc>:<wr_alloc>,<mshr>:<N>:<merge>,<mq>:<rf>}
-gpgpu_const_cache:l1 N:128:64:8,L:R:f:N:L,S:2:64,4 # per-shader L1 constant memory cache  (READ-ONLY) config  {<nsets>:<bsize>:<assoc>,<rep>:<wr>:<alloc>:<wr_alloc>,<mshr>:<N>:<merge>,<mq>} 
-gpgpu_cache:il1     N:64:128:16,L:R:f:N:L,S:2:48,4 # shader L1 instruction cache config  {<nsets>:<bsize>:<assoc>,<rep>:<wr>:<alloc>:<wr_alloc>,<mshr>:<N>:<merge>,<mq>} 
-gpgpu_cache:dl1     S:4:128:64,L:T:m:L:L,A:256:32,16:0,32 # per-shader L1 data cache config  {<nsets>:<bsize>:<assoc>,<rep>:<wr>:<alloc>:<wr_alloc>,<mshr>:<N>:<merge>,<mq> | none}
-gpgpu_l1_cache_write_ratio                   25 # L1D write ratio
-gpgpu_l1_banks                         4 # The number of L1 cache banks
-gpgpu_l1_banks_byte_interleaving                   32 # l1 banks byte interleaving granularity
-gpgpu_l1_banks_hashing_function                    0 # l1 banks hashing function
-gpgpu_l1_latency                      32 # L1 Hit Latency
-gpgpu_smem_latency                    30 # smem Latency
-gpgpu_cache:dl1PrefL1                 none # per-shader L1 data cache config  {<nsets>:<bsize>:<assoc>,<rep>:<wr>:<alloc>:<wr_alloc>,<mshr>:<N>:<merge>,<mq> | none}
-gpgpu_cache:dl1PrefShared                 none # per-shader L1 data cache config  {<nsets>:<bsize>:<assoc>,<rep>:<wr>:<alloc>:<wr_alloc>,<mshr>:<N>:<merge>,<mq> | none}
-gpgpu_gmem_skip_L1D                    0 # global memory access skip L1D cache (implements -Xptxas -dlcm=cg, default=no skip)
-gpgpu_perfect_mem                      0 # enable perfect memory mode (no cache miss)
-n_regfile_gating_group                    4 # group of lanes that should be read/written together)
-gpgpu_clock_gated_reg_file                    0 # enable clock gated reg file for power calculations
-gpgpu_clock_gated_lanes                    0 # enable clock gated lanes for power calculations
-gpgpu_shader_registers                65536 # Number of registers per shader core. Limits number of concurrent CTAs. (default 8192)
-gpgpu_registers_per_block                65536 # Maximum number of registers per CTA. (default 8192)
-gpgpu_ignore_resources_limitation                    0 # gpgpu_ignore_resources_limitation (default 0)
-gpgpu_shader_cta                      16 # Maximum number of concurrent CTAs in shader (default 32)
-gpgpu_num_cta_barriers                   16 # Maximum number of named barriers per CTA (default 16)
-gpgpu_n_clusters                      30 # number of processing clusters
-gpgpu_n_cores_per_cluster                    1 # number of simd cores per cluster
-gpgpu_n_cluster_ejection_buffer_size                   32 # number of packets in ejection buffer
-gpgpu_n_ldst_response_buffer_size                    2 # number of response packets in ld/st unit ejection buffer
-gpgpu_shmem_per_block                49152 # Size of shared memory per thread block or CTA (default 48kB)
-gpgpu_shmem_size                   65536 # Size of shared memory per shader core (default 16kB)
-gpgpu_shmem_option                 32,64 # Option list of shared memory sizes
-gpgpu_unified_l1d_size                   96 # Size of unified data cache(L1D + shared memory) in KB
-gpgpu_adaptive_cache_config                    1 # adaptive_cache_config
-gpgpu_shmem_sizeDefault                65536 # Size of shared memory per shader core (default 16kB)
-gpgpu_shmem_size_PrefL1                16384 # Size of shared memory per shader core (default 16kB)
-gpgpu_shmem_size_PrefShared                16384 # Size of shared memory per shader core (default 16kB)
-gpgpu_shmem_num_banks                   32 # Number of banks in the shared memory in each shader core (default 16)
-gpgpu_shmem_limited_broadcast                    0 # Limit shared memory to do one broadcast per cycle (default on)
-gpgpu_shmem_warp_parts                    1 # Number of portions a warp is divided into for shared memory bank conflict check 
-gpgpu_mem_unit_ports                    1 # The number of memory transactions allowed per core cycle
-gpgpu_shmem_warp_parts                    1 # Number of portions a warp is divided into for shared memory bank conflict check 
-gpgpu_warpdistro_shader                   -1 # Specify which shader core to collect the warp size distribution from
-gpgpu_warp_issue_shader                    0 # Specify which shader core to collect the warp issue distribution from
-gpgpu_local_mem_map                    1 # Mapping from local memory space address to simulated GPU physical address space (default = enabled)
-gpgpu_num_reg_banks                    8 # Number of register banks (default = 8)
-gpgpu_reg_bank_use_warp_id                    0 # Use warp ID in mapping registers to banks (default = off)
-gpgpu_sub_core_model                    1 # Sub Core Volta/Pascal model (default = off)
-gpgpu_enable_specialized_operand_collector                    0 # enable_specialized_operand_collector
-gpgpu_operand_collector_num_units_sp                    4 # number of collector units (default = 4)
-gpgpu_operand_collector_num_units_dp                    0 # number of collector units (default = 0)
-gpgpu_operand_collector_num_units_sfu                    4 # number of collector units (default = 4)
-gpgpu_operand_collector_num_units_int                    0 # number of collector units (default = 0)
-gpgpu_operand_collector_num_units_tensor_core                    4 # number of collector units (default = 4)
-gpgpu_operand_collector_num_units_mem                    2 # number of collector units (default = 2)
-gpgpu_operand_collector_num_units_gen                    8 # number of collector units (default = 0)
-gpgpu_operand_collector_num_in_ports_sp                    1 # number of collector unit in ports (default = 1)
-gpgpu_operand_collector_num_in_ports_dp                    0 # number of collector unit in ports (default = 0)
-gpgpu_operand_collector_num_in_ports_sfu                    1 # number of collector unit in ports (default = 1)
-gpgpu_operand_collector_num_in_ports_int                    0 # number of collector unit in ports (default = 0)
-gpgpu_operand_collector_num_in_ports_tensor_core                    1 # number of collector unit in ports (default = 1)
-gpgpu_operand_collector_num_in_ports_mem                    1 # number of collector unit in ports (default = 1)
-gpgpu_operand_collector_num_in_ports_gen                    8 # number of collector unit in ports (default = 0)
-gpgpu_operand_collector_num_out_ports_sp                    1 # number of collector unit in ports (default = 1)
-gpgpu_operand_collector_num_out_ports_dp                    0 # number of collector unit in ports (default = 0)
-gpgpu_operand_collector_num_out_ports_sfu                    1 # number of collector unit in ports (default = 1)
-gpgpu_operand_collector_num_out_ports_int                    0 # number of collector unit in ports (default = 0)
-gpgpu_operand_collector_num_out_ports_tensor_core                    1 # number of collector unit in ports (default = 1)
-gpgpu_operand_collector_num_out_ports_mem                    1 # number of collector unit in ports (default = 1)
-gpgpu_operand_collector_num_out_ports_gen                    8 # number of collector unit in ports (default = 0)
-gpgpu_coalesce_arch                   75 # Coalescing arch (GT200 = 13, Fermi = 20)
-gpgpu_num_sched_per_core                    4 # Number of warp schedulers per core
-gpgpu_max_insn_issue_per_warp                    1 # Max number of instructions that can be issued per warp in one cycle by scheduler (either 1 or 2)
-gpgpu_dual_issue_diff_exec_units                    1 # should dual issue use two different execution unit resources (Default = 1)
-gpgpu_simt_core_sim_order                    1 # Select the simulation order of cores in a cluster (0=Fix, 1=Round-Robin)
-gpgpu_pipeline_widths 4,4,4,4,4,4,4,4,4,4,8,4,4 # Pipeline widths ID_OC_SP,ID_OC_DP,ID_OC_INT,ID_OC_SFU,ID_OC_MEM,OC_EX_SP,OC_EX_DP,OC_EX_INT,OC_EX_SFU,OC_EX_MEM,EX_WB,ID_OC_TENSOR_CORE,OC_EX_TENSOR_CORE
-gpgpu_tensor_core_avail                    1 # Tensor Core Available (default=0)
-gpgpu_num_sp_units                     4 # Number of SP units (default=1)
-gpgpu_num_dp_units                     4 # Number of DP units (default=0)
-gpgpu_num_int_units                    4 # Number of INT units (default=0)
-gpgpu_num_sfu_units                    4 # Number of SF units (default=1)
-gpgpu_num_tensor_core_units                    4 # Number of tensor_core units (default=1)
-gpgpu_num_mem_units                    1 # Number if ldst units (default=1) WARNING: not hooked up to anything
-kernelBased                            0 # Does the approximator work as kernel based (default = 0)
-kernelId                               0 # Kernel ids where the approximation applied 
-hybridApproximation                    0 # Hybrid approximator (default = 0)
-errorPercentage                      100 # Error percentage (number of max flushed accesses)
-l1dApproximator                        0 # Memory access delete unit (default = 0)
-l1dSlicingAccessInterval                 5000 # Slice access window length (default = 1000)
-l2Approximator                         1 # Memory access delete unit (default = 0)
-l2SlicingAccessInterval                 5000 # Slice access window length (default = 1000)
-smOccupancy                            0 # sm occupancy (default = 0)
-smSlicingInterval                   5000 # Slice access window length (default = 1000)
-gpgpu_scheduler                      lrr # Scheduler configuration: < lrr | gto | two_level_active > If two_level_active:<num_active_warps>:<inner_prioritization>:<outer_prioritization>For complete list of prioritization values see shader.h enum scheduler_prioritization_typeDefault: gto
-gpgpu_concurrent_kernel_sm                    0 # Support concurrent kernels on a SM (default = disabled)
-gpgpu_perfect_inst_const_cache                    1 # perfect inst and const cache mode, so all inst and const hits in the cache(default = disabled)
-gpgpu_inst_fetch_throughput                    4 # the number of fetched intruction per warp each cycle
-gpgpu_reg_file_port_throughput                    2 # the number ports of the register file
-specialized_unit_1         0,4,4,4,4,BRA # specialized unit config {<enabled>,<num_units>:<latency>:<initiation>,<ID_OC_SPEC>:<OC_EX_SPEC>,<NAME>}
-specialized_unit_2         0,4,4,4,4,BRA # specialized unit config {<enabled>,<num_units>:<latency>:<initiation>,<ID_OC_SPEC>:<OC_EX_SPEC>,<NAME>}
-specialized_unit_3         0,4,4,4,4,BRA # specialized unit config {<enabled>,<num_units>:<latency>:<initiation>,<ID_OC_SPEC>:<OC_EX_SPEC>,<NAME>}
-specialized_unit_4         0,4,4,4,4,BRA # specialized unit config {<enabled>,<num_units>:<latency>:<initiation>,<ID_OC_SPEC>:<OC_EX_SPEC>,<NAME>}
-specialized_unit_5         0,4,4,4,4,BRA # specialized unit config {<enabled>,<num_units>:<latency>:<initiation>,<ID_OC_SPEC>:<OC_EX_SPEC>,<NAME>}
-specialized_unit_6         0,4,4,4,4,BRA # specialized unit config {<enabled>,<num_units>:<latency>:<initiation>,<ID_OC_SPEC>:<OC_EX_SPEC>,<NAME>}
-specialized_unit_7         0,4,4,4,4,BRA # specialized unit config {<enabled>,<num_units>:<latency>:<initiation>,<ID_OC_SPEC>:<OC_EX_SPEC>,<NAME>}
-specialized_unit_8         0,4,4,4,4,BRA # specialized unit config {<enabled>,<num_units>:<latency>:<initiation>,<ID_OC_SPEC>:<OC_EX_SPEC>,<NAME>}
-gpgpu_perf_sim_memcpy                    1 # Fill the L2 cache on memcpy
-gpgpu_simple_dram_model                    0 # simple_dram_model with fixed latency and BW
-gpgpu_dram_scheduler                    1 # 0 = fifo, 1 = FR-FCFS (defaul)
-gpgpu_dram_partition_queues          64:64:64:64 # i2$:$2d:d2$:$2i
-l2_ideal                               0 # Use a ideal L2 cache that always hit
-gpgpu_cache:dl2     S:64:128:16,L:B:m:L:P,A:192:4,32:0,32 # unified banked L2 data cache config  {<nsets>:<bsize>:<assoc>,<rep>:<wr>:<alloc>:<wr_alloc>,<mshr>:<N>:<merge>,<mq>}
-gpgpu_cache:dl2_texture_only                    0 # L2 cache used for texture only
-gpgpu_n_mem                           12 # number of memory modules (e.g. memory controllers) in gpu
-gpgpu_n_sub_partition_per_mchannel                    2 # number of memory subpartition in each memory module
-gpgpu_n_mem_per_ctrlr                    1 # number of memory chips per memory controller
-gpgpu_memlatency_stat                   14 # track and display latency statistics 0x2 enables MC, 0x4 enables queue logs
-gpgpu_frfcfs_dram_sched_queue_size                   64 # 0 = unlimited (default); # entries per chip
-gpgpu_dram_return_queue_size                  192 # 0 = unlimited (default); # entries per chip
-gpgpu_dram_buswidth                    2 # default = 4 bytes (8 bytes per cycle at DDR)
-gpgpu_dram_burst_length                   16 # Burst length of each DRAM request (default = 4 data bus cycle)
-dram_data_command_freq_ratio                    4 # Frequency ratio between DRAM data bus and command bus (default = 2 times, i.e. DDR)
-gpgpu_dram_timing_opt nbk=16:CCD=4:RRD=12:RCD=24:RAS=55:RP=24:RC=78:CL=24:WL=8:CDLR=10:WR=24:nbkgrp=4:CCDL=6:RTPL=4 # DRAM timing parameters = {nbk:tCCD:tRRD:tRCD:tRAS:tRP:tRC:CL:WL:tCDLR:tWR:nbkgrp:tCCDL:tRTPL}
-gpgpu_l2_rop_latency                  194 # ROP queue latency (default 85)
-dram_latency                          96 # DRAM latency (default 30)
-dram_dual_bus_interface                    0 # dual_bus_interface (default = 0) 
-dram_bnk_indexing_policy                    0 # dram_bnk_indexing_policy (0 = normal indexing, 1 = Xoring with the higher bits) (Default = 0)
-dram_bnkgrp_indexing_policy                    1 # dram_bnkgrp_indexing_policy (0 = take higher bits, 1 = take lower bits) (Default = 0)
-dram_seperate_write_queue_enable                    0 # Seperate_Write_Queue_Enable
-dram_write_queue_size             32:28:16 # Write_Queue_Size
-dram_elimnate_rw_turnaround                    0 # elimnate_rw_turnaround i.e set tWTR and tRTW = 0
-icnt_flit_size                        40 # icnt_flit_size
-icnt_flit_size                        40 # icnt_flit_size
-mem_profiler                           0 # memory access runtime profiling (0 = not enabled)
-gpgpu_mem_addr_mapping dramid@8;00000000.00000000.00000000.00000000.0000RRRR.RRRRRRRR.RBBBCCCC.BCCSSSSS # mapping memory address to dram model {dramid@<start bit>;<memory address map>}
-gpgpu_mem_addr_test                    0 # run sweep test to check address mapping for aliased address
-gpgpu_mem_address_mask                    1 # 0 = old addressing mask, 1 = new addressing mask, 2 = new add. mask + flipped bank sel and chip sel bits
-gpgpu_memory_partition_indexing                    0 # 0 = no indexing, 1 = bitwise xoring, 2 = IPoly, 3 = custom indexing
-accelwattch_xml_file accelwattch_sass_sim.xml # AccelWattch XML file
-power_simulation_enabled                    1 # Turn on power simulator (1=On, 0=Off)
-power_per_cycle_dump                    1 # Dump detailed power output each cycle
-hw_perf_file_name            hw_perf.csv # Hardware Performance Statistics file
-hw_perf_bench_name    hw_perf_bench_name # Kernel Name in Hardware Performance Statistics file
-power_simulation_mode                    0 # Switch performance counter input for power simulation (0=Sim, 1=HW, 2=HW-Sim Hybrid)
-dvfs_enabled                           1 # Turn on DVFS for power model
-aggregate_power_stats                    0 # Accumulate power across all kernels
-accelwattch_hybrid_perfsim_L1_RH                    0 # Get L1 Read Hits for Accelwattch-Hybrid from Accel-Sim
-accelwattch_hybrid_perfsim_L1_RM                    0 # Get L1 Read Misses for Accelwattch-Hybrid from Accel-Sim
-accelwattch_hybrid_perfsim_L1_WH                    0 # Get L1 Write Hits for Accelwattch-Hybrid from Accel-Sim
-accelwattch_hybrid_perfsim_L1_WM                    0 # Get L1 Write Misses for Accelwattch-Hybrid from Accel-Sim
-accelwattch_hybrid_perfsim_L2_RH                    0 # Get L2 Read Hits for Accelwattch-Hybrid from Accel-Sim
-accelwattch_hybrid_perfsim_L2_RM                    0 # Get L2 Read Misses for Accelwattch-Hybrid from Accel-Sim
-accelwattch_hybrid_perfsim_L2_WH                    0 # Get L2 Write Hits for Accelwattch-Hybrid from Accel-Sim
-accelwattch_hybrid_perfsim_L2_WM                    0 # Get L2 Write Misses for Accelwattch-Hybrid from Accel-Sim
-accelwattch_hybrid_perfsim_CC_ACC                    0 # Get Constant Cache Acesses for Accelwattch-Hybrid from Accel-Sim
-accelwattch_hybrid_perfsim_SHARED_ACC                    0 # Get Shared Memory Acesses for Accelwattch-Hybrid from Accel-Sim
-accelwattch_hybrid_perfsim_DRAM_RD                    0 # Get DRAM Reads for Accelwattch-Hybrid from Accel-Sim
-accelwattch_hybrid_perfsim_DRAM_WR                    0 # Get DRAM Writes for Accelwattch-Hybrid from Accel-Sim
-accelwattch_hybrid_perfsim_NOC                    0 # Get Interconnect Acesses for Accelwattch-Hybrid from Accel-Sim
-accelwattch_hybrid_perfsim_PIPE_DUTY                    0 # Get Pipeline Duty Cycle Acesses for Accelwattch-Hybrid from Accel-Sim
-accelwattch_hybrid_perfsim_NUM_SM_IDLE                    0 # Get Number of Idle SMs for Accelwattch-Hybrid from Accel-Sim
-accelwattch_hybrid_perfsim_CYCLES                    0 # Get Executed Cycles for Accelwattch-Hybrid from Accel-Sim
-accelwattch_hybrid_perfsim_VOLTAGE                    0 # Get Chip Voltage for Accelwattch-Hybrid from Accel-Sim
-power_trace_enabled                    0 # produce a file for the power trace (1=On, 0=Off)
-power_trace_zlevel                     0 # Compression level of the power trace output log (0=no comp, 9=highest)
-steady_power_levels_enabled                    0 # produce a file for the steady power levels (1=On, 0=Off)
-steady_state_definition                  8:4 # allowed deviation:number of samples
-gpgpu_max_cycle                        0 # terminates gpu simulation early (0 = no limit)
-gpgpu_max_insn                         0 # terminates gpu simulation early (0 = no limit)
-gpgpu_max_cta                          0 # terminates gpu simulation early (0 = no limit)
-gpgpu_max_completed_cta                    0 # terminates gpu simulation early (0 = no limit)
-gpgpu_runtime_stat                  1000 # display runtime statistics such as dram utilization {<freq>:<flag>}
-liveness_message_freq                    1 # Minimum number of seconds between simulation liveness messages (0 = always print)
-gpgpu_compute_capability_major                    7 # Major compute capability version number
-gpgpu_compute_capability_minor                    5 # Minor compute capability version number
-gpgpu_flush_l1_cache                    1 # Flush L1 cache at the end of each kernel call
-gpgpu_flush_l2_cache                    0 # Flush L2 cache at the end of each kernel call
-gpgpu_deadlock_detect                    1 # Stop the simulation at deadlock (1=on (default), 0=off)
-gpgpu_ptx_instruction_classification                    0 # if enabled will classify ptx instruction types per kernel (Max 255 kernels now)
-gpgpu_ptx_sim_mode                     0 # Select between Performance (default) or Functional simulation (1)
-gpgpu_clock_domains 1365:1365:1365:3500.5 # Clock Domain Frequencies in MhZ {<Core Clock>:<ICNT Clock>:<L2 Clock>:<DRAM Clock>}
-gpgpu_max_concurrent_kernel                  128 # maximum kernels that can run concurrently on GPU, set this value according to max resident grids for your compute capability
-gpgpu_cflog_interval                    0 # Interval between each snapshot in control flow logger
-visualizer_enabled                     0 # Turn on visualizer output (1=On, 0=Off)
-visualizer_outputfile                 NULL # Specifies the output log file for visualizer
-visualizer_zlevel                      6 # Compression level of the visualizer output log (0=no comp, 9=highest)
-gpgpu_stack_size_limit                 1024 # GPU thread stack size
-gpgpu_heap_size_limit              8388608 # GPU malloc heap size 
-gpgpu_runtime_sync_depth_limit                    2 # GPU device runtime synchronize depth
-gpgpu_runtime_pending_launch_count_limit                 2048 # GPU device runtime pending launch count
-trace_enabled                          0 # Turn on traces
-trace_components                    none # comma seperated list of traces to enable. Complete list found in trace_streams.tup. Default none
-trace_sampling_core                    0 # The core which is printed using CORE_DPRINTF. Default 0
-trace_sampling_memory_partition                   -1 # The memory partition which is printed using MEMPART_DPRINTF. Default -1 (i.e. all)
-enable_ptx_file_line_stats                    1 # Turn on PTX source line statistic profiling. (1 = On)
-ptx_line_stats_filename gpgpu_inst_stats.txt # Output file for PTX source line statistics.
-gpgpu_kernel_launch_latency                 5000 # Kernel launch latency in cycles. Default: 0
-gpgpu_cdp_enabled                      0 # Turn on CDP
-gpgpu_TB_launch_latency                    0 # thread block launch latency in cycles. Default: 0
-mem_runtime_stat                     100 # memory access runtime profiling sampling freq
-L1D_metrics                            0 # memory access runtime profiling for L1 data cache
-noncoal_metrics                        0 # memory access runtime profiling for shared memory
-L2_metrics                             0 # memory access runtime profiling for L2 cache
-DRAM_metrics                           0 # memory access runtime profiling for DRAM
-Shmem_metrics                          0 # memory access runtime profiling for noncoalesced accesses
-store_enable                           0 # Enable stores for memory profiling
-accumulate_stats                       0 # Accumulate stats for the memory profiling
-dump_enable                            0 # Process dump enable flag - (def = 0)
-flush_l1d                              0 # Enable flushings for L1D caches - (default = 0)
-flush_l2                               0 # Enable flushings for L2 caches - (default = 0)
-flush_dram                             0 # Enable flushings for DRAM - (default = 0)
-flush_noncoalesceds                    0 # Enable flushings for non coalesced accesses - (default = 0)
-flush_shmems                           0 # Enable flushings for shared memory accesses - (default = 0)
-error_percentage                       2 # Error percentage for the flushes - (default = 1)
-flush_acc_type                         2 # Flush access types
-monitor_sampling_cycle                  200 # Monitoring sampling cycle - (default = 5000)
DRAM Timing Options:
nbk                                    16 # number of banks
CCD                                     4 # column to column delay
RRD                                    12 # minimal delay between activation of rows in different banks
RCD                                    24 # row to column delay
RAS                                    55 # time needed to activate row
RP                                     24 # time needed to precharge (deactivate) row
RC                                     78 # row cycle time
CDLR                                   10 # switching from write to read (changes tWTR)
WR                                     24 # last data-in to row precharge
CL                                     24 # CAS latency
WL                                      8 # Write latency
nbkgrp                                  4 # number of bank groups
CCDL                                    6 # column to column delay between accesses to different bank groups
RTPL                                    4 # read to precharge delay between accesses to different bank groups
Total number of memory sub partition = 24
addr_dec_mask[CHIP]  = 0000000000000000 	high:64 low:0
addr_dec_mask[BK]    = 0000000000007080 	high:15 low:7
addr_dec_mask[ROW]   = 000000000fff8000 	high:28 low:15
addr_dec_mask[COL]   = 0000000000000f7f 	high:12 low:0
addr_dec_mask[BURST] = 000000000000001f 	high:5 low:0
sub_partition_id_mask = 0000000000000080
GPGPU-Sim uArch: clock freqs: 1365000000.000000:1365000000.000000:1365000000.000000:3500500000.000000
GPGPU-Sim uArch: clock periods: 0.00000000073260073260:0.00000000073260073260:0.00000000073260073260:0.00000000028567347522
*** Initializing Memory Statistics ***
--------------------------------------------------------------
L2 access stats (for 0'th subPartition) 
--	Kid = 0 || L2 Acc = 30855, -- Miss = 5830, rate = 0.1889, -- PendHits = 1, rate = 0.0000-- ResFail = 0, rate = 0.0000
Error Per = 100 || Flushes = 58 || slicingInterval = 5000
--------------------------------------------------------------
L2 access stats (for 1'th subPartition) 
--	Kid = 0 || L2 Acc = 30887, -- Miss = 5792, rate = 0.1875, -- PendHits = 0, rate = 0.0000-- ResFail = 0, rate = 0.0000
Error Per = 100 || Flushes = 57 || slicingInterval = 5000
--------------------------------------------------------------
L2 access stats (for 2'th subPartition) 
--	Kid = 0 || L2 Acc = 30618, -- Miss = 5758, rate = 0.1881, -- PendHits = 0, rate = 0.0000-- ResFail = 0, rate = 0.0000
Error Per = 100 || Flushes = 57 || slicingInterval = 5000
--------------------------------------------------------------
L2 access stats (for 3'th subPartition) 
--	Kid = 0 || L2 Acc = 30626, -- Miss = 5705, rate = 0.1863, -- PendHits = 0, rate = 0.0000-- ResFail = 0, rate = 0.0000
Error Per = 100 || Flushes = 57 || slicingInterval = 5000
--------------------------------------------------------------
L2 access stats (for 4'th subPartition) 
--	Kid = 0 || L2 Acc = 30231, -- Miss = 5780, rate = 0.1912, -- PendHits = 0, rate = 0.0000-- ResFail = 0, rate = 0.0000
Error Per = 100 || Flushes = 57 || slicingInterval = 5000
--------------------------------------------------------------
L2 access stats (for 5'th subPartition) 
--	Kid = 0 || L2 Acc = 30590, -- Miss = 5797, rate = 0.1895, -- PendHits = 0, rate = 0.0000-- ResFail = 0, rate = 0.0000
Error Per = 100 || Flushes = 57 || slicingInterval = 5000
--------------------------------------------------------------
L2 access stats (for 6'th subPartition) 
--	Kid = 0 || L2 Acc = 30874, -- Miss = 5691, rate = 0.1843, -- PendHits = 0, rate = 0.0000-- ResFail = 0, rate = 0.0000
Error Per = 100 || Flushes = 56 || slicingInterval = 5000
--------------------------------------------------------------
L2 access stats (for 7'th subPartition) 
--	Kid = 0 || L2 Acc = 30990, -- Miss = 5691, rate = 0.1836, -- PendHits = 0, rate = 0.0000-- ResFail = 0, rate = 0.0000
Error Per = 100 || Flushes = 56 || slicingInterval = 5000
--------------------------------------------------------------
L2 access stats (for 8'th subPartition) 
--	Kid = 0 || L2 Acc = 30902, -- Miss = 5749, rate = 0.1860, -- PendHits = 1, rate = 0.0000-- ResFail = 0, rate = 0.0000
Error Per = 100 || Flushes = 57 || slicingInterval = 5000
--------------------------------------------------------------
L2 access stats (for 9'th subPartition) 
--	Kid = 0 || L2 Acc = 30893, -- Miss = 5768, rate = 0.1867, -- PendHits = 0, rate = 0.0000-- ResFail = 0, rate = 0.0000
Error Per = 100 || Flushes = 57 || slicingInterval = 5000
--------------------------------------------------------------
L2 access stats (for 10'th subPartition) 
--	Kid = 0 || L2 Acc = 30461, -- Miss = 5753, rate = 0.1889, -- PendHits = 0, rate = 0.0000-- ResFail = 0, rate = 0.0000
Error Per = 100 || Flushes = 57 || slicingInterval = 5000
--------------------------------------------------------------
L2 access stats (for 11'th subPartition) 
--	Kid = 0 || L2 Acc = 30524, -- Miss = 5724, rate = 0.1875, -- PendHits = 0, rate = 0.0000-- ResFail = 0, rate = 0.0000
Error Per = 100 || Flushes = 57 || slicingInterval = 5000
--------------------------------------------------------------
L2 access stats (for 12'th subPartition) 
--	Kid = 0 || L2 Acc = 30118, -- Miss = 5701, rate = 0.1893, -- PendHits = 0, rate = 0.0000-- ResFail = 0, rate = 0.0000
Error Per = 100 || Flushes = 57 || slicingInterval = 5000
--------------------------------------------------------------
L2 access stats (for 13'th subPartition) 
--	Kid = 0 || L2 Acc = 30608, -- Miss = 5811, rate = 0.1899, -- PendHits = 0, rate = 0.0000-- ResFail = 0, rate = 0.0000
Error Per = 100 || Flushes = 58 || slicingInterval = 5000
--------------------------------------------------------------
L2 access stats (for 14'th subPartition) 
--	Kid = 0 || L2 Acc = 30587, -- Miss = 5778, rate = 0.1889, -- PendHits = 0, rate = 0.0000-- ResFail = 0, rate = 0.0000
Error Per = 100 || Flushes = 57 || slicingInterval = 5000
--------------------------------------------------------------
L2 access stats (for 15'th subPartition) 
--	Kid = 0 || L2 Acc = 30768, -- Miss = 5811, rate = 0.1889, -- PendHits = 0, rate = 0.0000-- ResFail = 0, rate = 0.0000
Error Per = 100 || Flushes = 58 || slicingInterval = 5000
--------------------------------------------------------------
L2 access stats (for 16'th subPartition) 
--	Kid = 0 || L2 Acc = 30608, -- Miss = 5772, rate = 0.1886, -- PendHits = 2, rate = 0.0001-- ResFail = 0, rate = 0.0000
Error Per = 100 || Flushes = 57 || slicingInterval = 5000
--------------------------------------------------------------
L2 access stats (for 17'th subPartition) 
--	Kid = 0 || L2 Acc = 30883, -- Miss = 5758, rate = 0.1864, -- PendHits = 0, rate = 0.0000-- ResFail = 0, rate = 0.0000
Error Per = 100 || Flushes = 57 || slicingInterval = 5000
--------------------------------------------------------------
L2 access stats (for 18'th subPartition) 
--	Kid = 0 || L2 Acc = 30932, -- Miss = 5774, rate = 0.1867, -- PendHits = 0, rate = 0.0000-- ResFail = 0, rate = 0.0000
Error Per = 100 || Flushes = 57 || slicingInterval = 5000
--------------------------------------------------------------
L2 access stats (for 19'th subPartition) 
--	Kid = 0 || L2 Acc = 31167, -- Miss = 5785, rate = 0.1856, -- PendHits = 0, rate = 0.0000-- ResFail = 0, rate = 0.0000
Error Per = 100 || Flushes = 57 || slicingInterval = 5000
--------------------------------------------------------------
L2 access stats (for 20'th subPartition) 
--	Kid = 0 || L2 Acc = 30969, -- Miss = 5771, rate = 0.1863, -- PendHits = 0, rate = 0.0000-- ResFail = 0, rate = 0.0000
Error Per = 100 || Flushes = 57 || slicingInterval = 5000
--------------------------------------------------------------
L2 access stats (for 21'th subPartition) 
--	Kid = 0 || L2 Acc = 30983, -- Miss = 5793, rate = 0.1870, -- PendHits = 0, rate = 0.0000-- ResFail = 0, rate = 0.0000
Error Per = 100 || Flushes = 57 || slicingInterval = 5000
--------------------------------------------------------------
L2 access stats (for 22'th subPartition) 
--	Kid = 0 || L2 Acc = 31033, -- Miss = 5826, rate = 0.1877, -- PendHits = 0, rate = 0.0000-- ResFail = 0, rate = 0.0000
Error Per = 100 || Flushes = 58 || slicingInterval = 5000
--------------------------------------------------------------
L2 access stats (for 23'th subPartition) 
--	Kid = 0 || L2 Acc = 31028, -- Miss = 5815, rate = 0.1874, -- PendHits = 0, rate = 0.0000-- ResFail = 0, rate = 0.0000
Error Per = 100 || Flushes = 58 || slicingInterval = 5000
71222c4f3617a8b1cabdfefbc2d5f110  /home/pars/Documents/expSetups/a11/spmv_base_L2_100__frb53-24-1
Extracting PTX file and ptxas options    1: spmv_base_L2_100__frb53-24-1.1.sm_75.ptx -arch=sm_75
GPGPU-Sim uArch: performance model initialization complete.
Parallel calisiyor
self exe links to: /home/pars/Documents/expSetups/a11/spmv_base_L2_100__frb53-24-1
self exe links to: /home/pars/Documents/expSetups/a11/spmv_base_L2_100__frb53-24-1
11.0
GPGPU-Sim PTX: __cudaRegisterFatBinary, fat_cubin_handle = 1, filename=default
self exe links to: /home/pars/Documents/expSetups/a11/spmv_base_L2_100__frb53-24-1
Running md5sum using "md5sum /home/pars/Documents/expSetups/a11/spmv_base_L2_100__frb53-24-1 "
self exe links to: /home/pars/Documents/expSetups/a11/spmv_base_L2_100__frb53-24-1
Extracting specific PTX file named spmv_base_L2_100__frb53-24-1.1.sm_75.ptx 
GPGPU-Sim PTX: __cudaRegisterFunction _Z15spmv_csr_scalariPKmPKiPKfS4_Pf : hostFun 0x0x55b0bc45537b, fat_cubin_handle = 1
GPGPU-Sim PTX: Parsing spmv_base_L2_100__frb53-24-1.1.sm_75.ptx
GPGPU-Sim PTX: Warning -- ignoring pragma 'nounroll'
GPGPU-Sim PTX: instruction assembly for function '_Z15spmv_csr_scalariPKmPKiPKfS4_Pf'...   done.
GPGPU-Sim PTX: finished parsing EMBEDDED .ptx file spmv_base_L2_100__frb53-24-1.1.sm_75.ptx
GPGPU-Sim PTX: loading globals with explicit initializers... 
GPGPU-Sim PTX: finished loading globals (0 bytes total).
GPGPU-Sim PTX: loading constants with explicit initializers...  done.
GPGPU-Sim PTX: Loading PTXInfo from spmv_base_L2_100__frb53-24-1.1.sm_75.ptx
GPGPU-Sim PTX: Kernel '_Z15spmv_csr_scalariPKmPKiPKfS4_Pf' : regs=58, lmem=0, smem=0, cmem=400
Sparse Matrix-Vector Multiplication by Xuhao Chen
Reading (.mtx) input file ../../gardenia/datasets/frb53-24-1.mtx
Removing redundent edges... 0 redundent edges are removed
|V| 1272 |E| 714129
This graph maintains both incomming and outgoing edge-list
Launching CUDA SpMV solver (5 CTAs, 256 threads/CTA) ...
GPGPU-Sim PTX: Setting up arguments for 4 bytes starting at 0x7ffe4322d6ac..
GPGPU-Sim PTX: Setting up arguments for 8 bytes starting at 0x7ffe4322d6a0..
GPGPU-Sim PTX: Setting up arguments for 8 bytes starting at 0x7ffe4322d698..
GPGPU-Sim PTX: Setting up arguments for 8 bytes starting at 0x7ffe4322d690..
GPGPU-Sim PTX: Setting up arguments for 8 bytes starting at 0x7ffe4322d688..
GPGPU-Sim PTX: Setting up arguments for 8 bytes starting at 0x7ffe4322d680..

GPGPU-Sim PTX: cudaLaunch for 0x0x55b0bc45537b (mode=performance simulation) on stream 0
GPGPU-Sim PTX: finding reconvergence points for '_Z15spmv_csr_scalariPKmPKiPKfS4_Pf'...
GPGPU-Sim PTX: Finding dominators for '_Z15spmv_csr_scalariPKmPKiPKfS4_Pf'...
GPGPU-Sim PTX: Finding immediate dominators for '_Z15spmv_csr_scalariPKmPKiPKfS4_Pf'...
GPGPU-Sim PTX: Finding postdominators for '_Z15spmv_csr_scalariPKmPKiPKfS4_Pf'...
GPGPU-Sim PTX: Finding immediate postdominators for '_Z15spmv_csr_scalariPKmPKiPKfS4_Pf'...
GPGPU-Sim PTX: pre-decoding instructions for '_Z15spmv_csr_scalariPKmPKiPKfS4_Pf'...
GPGPU-Sim PTX: reconvergence points for _Z15spmv_csr_scalariPKmPKiPKfS4_Pf...
GPGPU-Sim PTX:  1 (potential) branch divergence @  PC=0x070 (spmv_base_L2_100__frb53-24-1.1.sm_75.ptx:44) @%p1 bra $L__BB0_9;
GPGPU-Sim PTX:    immediate post dominator      @  PC=0x2a8 (spmv_base_L2_100__frb53-24-1.1.sm_75.ptx:130) ret;
GPGPU-Sim PTX:  2 (potential) branch divergence @  PC=0x0c8 (spmv_base_L2_100__frb53-24-1.1.sm_75.ptx:56) @%p2 bra $L__BB0_8;
GPGPU-Sim PTX:    immediate post dominator      @  PC=0x2a0 (spmv_base_L2_100__frb53-24-1.1.sm_75.ptx:127) st.global.f32 [%rd4], %f27;
GPGPU-Sim PTX:  3 (potential) branch divergence @  PC=0x0f0 (spmv_base_L2_100__frb53-24-1.1.sm_75.ptx:62) @%p3 bra $L__BB0_5;
GPGPU-Sim PTX:    immediate post dominator      @  PC=0x178 (spmv_base_L2_100__frb53-24-1.1.sm_75.ptx:85) not.b32 %r18, %r2;
GPGPU-Sim PTX:  4 (potential) branch divergence @  PC=0x170 (spmv_base_L2_100__frb53-24-1.1.sm_75.ptx:82) @%p4 bra $L__BB0_4;
GPGPU-Sim PTX:    immediate post dominator      @  PC=0x178 (spmv_base_L2_100__frb53-24-1.1.sm_75.ptx:85) not.b32 %r18, %r2;
GPGPU-Sim PTX:  5 (potential) branch divergence @  PC=0x190 (spmv_base_L2_100__frb53-24-1.1.sm_75.ptx:88) @%p5 bra $L__BB0_8;
GPGPU-Sim PTX:    immediate post dominator      @  PC=0x2a0 (spmv_base_L2_100__frb53-24-1.1.sm_75.ptx:127) st.global.f32 [%rd4], %f27;
GPGPU-Sim PTX:  6 (potential) branch divergence @  PC=0x298 (spmv_base_L2_100__frb53-24-1.1.sm_75.ptx:124) @%p6 bra $L__BB0_7;
GPGPU-Sim PTX:    immediate post dominator      @  PC=0x2a0 (spmv_base_L2_100__frb53-24-1.1.sm_75.ptx:127) st.global.f32 [%rd4], %f27;
GPGPU-Sim PTX: ... end of reconvergence points for _Z15spmv_csr_scalariPKmPKiPKfS4_Pf
GPGPU-Sim PTX: ... done pre-decoding instructions for '_Z15spmv_csr_scalariPKmPKiPKfS4_Pf'.
GPGPU-Sim PTX: pushing kernel '_Z15spmv_csr_scalariPKmPKiPKfS4_Pf' to stream 0, gridDim= (5,1,1) blockDim = (256,1,1) 
GPGPU-Sim uArch: Shader 0 bind to kernel 1 '_Z15spmv_csr_scalariPKmPKiPKfS4_Pf'
GPGPU-Sim uArch: CTA/core = 4, limited by: threads regs
GPGPU-Sim: Reconfigure L1 cache to 64KB
GPGPU-Sim uArch: Shader 1 bind to kernel 1 '_Z15spmv_csr_scalariPKmPKiPKfS4_Pf'
GPGPU-Sim uArch: Shader 2 bind to kernel 1 '_Z15spmv_csr_scalariPKmPKiPKfS4_Pf'
GPGPU-Sim uArch: Shader 3 bind to kernel 1 '_Z15spmv_csr_scalariPKmPKiPKfS4_Pf'
GPGPU-Sim uArch: Shader 4 bind to kernel 1 '_Z15spmv_csr_scalariPKmPKiPKfS4_Pf'
Simulation cycle for kernel 0 is = 10000
Simulation cycle for kernel 0 is = 15000
Simulation cycle for kernel 0 is = 20000
Simulation cycle for kernel 0 is = 25000
Simulation cycle for kernel 0 is = 30000
Simulation cycle for kernel 0 is = 35000
Simulation cycle for kernel 0 is = 40000
Simulation cycle for kernel 0 is = 45000
Simulation cycle for kernel 0 is = 50000
Simulation cycle for kernel 0 is = 55000
Simulation cycle for kernel 0 is = 60000
Simulation cycle for kernel 0 is = 65000
Simulation cycle for kernel 0 is = 70000
Simulation cycle for kernel 0 is = 75000
Simulation cycle for kernel 0 is = 80000
Simulation cycle for kernel 0 is = 85000
Simulation cycle for kernel 0 is = 90000
Simulation cycle for kernel 0 is = 95000
Simulation cycle for kernel 0 is = 100000
Simulation cycle for kernel 0 is = 105000
Simulation cycle for kernel 0 is = 110000
Simulation cycle for kernel 0 is = 115000
Simulation cycle for kernel 0 is = 120000
Simulation cycle for kernel 0 is = 125000
Simulation cycle for kernel 0 is = 130000
Simulation cycle for kernel 0 is = 135000
Simulation cycle for kernel 0 is = 140000
Simulation cycle for kernel 0 is = 145000
Simulation cycle for kernel 0 is = 150000
Simulation cycle for kernel 0 is = 155000
Simulation cycle for kernel 0 is = 160000
Simulation cycle for kernel 0 is = 165000
Simulation cycle for kernel 0 is = 170000
Simulation cycle for kernel 0 is = 175000
Simulation cycle for kernel 0 is = 180000
Simulation cycle for kernel 0 is = 185000
Simulation cycle for kernel 0 is = 190000
Simulation cycle for kernel 0 is = 195000
Simulation cycle for kernel 0 is = 200000
Simulation cycle for kernel 0 is = 205000
Simulation cycle for kernel 0 is = 210000
Simulation cycle for kernel 0 is = 215000
Simulation cycle for kernel 0 is = 220000
Simulation cycle for kernel 0 is = 225000
Simulation cycle for kernel 0 is = 230000
Simulation cycle for kernel 0 is = 235000
Simulation cycle for kernel 0 is = 240000
Simulation cycle for kernel 0 is = 245000
Simulation cycle for kernel 0 is = 250000
Simulation cycle for kernel 0 is = 255000
Simulation cycle for kernel 0 is = 260000
Simulation cycle for kernel 0 is = 265000
Simulation cycle for kernel 0 is = 270000
Simulation cycle for kernel 0 is = 275000
Simulation cycle for kernel 0 is = 280000
Simulation cycle for kernel 0 is = 285000
Simulation cycle for kernel 0 is = 290000
Simulation cycle for kernel 0 is = 295000
Simulation cycle for kernel 0 is = 300000
Simulation cycle for kernel 0 is = 305000
Simulation cycle for kernel 0 is = 310000
Simulation cycle for kernel 0 is = 315000
Simulation cycle for kernel 0 is = 320000
Simulation cycle for kernel 0 is = 325000
Simulation cycle for kernel 0 is = 330000
Simulation cycle for kernel 0 is = 335000
Simulation cycle for kernel 0 is = 340000
Simulation cycle for kernel 0 is = 345000
Simulation cycle for kernel 0 is = 350000
Simulation cycle for kernel 0 is = 355000
Simulation cycle for kernel 0 is = 360000
Simulation cycle for kernel 0 is = 365000
Simulation cycle for kernel 0 is = 370000
Simulation cycle for kernel 0 is = 375000
Simulation cycle for kernel 0 is = 380000
Simulation cycle for kernel 0 is = 385000
Simulation cycle for kernel 0 is = 390000
Simulation cycle for kernel 0 is = 395000
Simulation cycle for kernel 0 is = 400000
Simulation cycle for kernel 0 is = 405000
Simulation cycle for kernel 0 is = 410000
Simulation cycle for kernel 0 is = 415000
Simulation cycle for kernel 0 is = 420000
Simulation cycle for kernel 0 is = 425000
Simulation cycle for kernel 0 is = 430000
Simulation cycle for kernel 0 is = 435000
Simulation cycle for kernel 0 is = 440000
Simulation cycle for kernel 0 is = 445000
Simulation cycle for kernel 0 is = 450000
Simulation cycle for kernel 0 is = 455000
Simulation cycle for kernel 0 is = 460000
Simulation cycle for kernel 0 is = 465000
Simulation cycle for kernel 0 is = 470000
Simulation cycle for kernel 0 is = 475000
Simulation cycle for kernel 0 is = 480000
Simulation cycle for kernel 0 is = 485000
Simulation cycle for kernel 0 is = 490000
Simulation cycle for kernel 0 is = 495000
Simulation cycle for kernel 0 is = 500000
Simulation cycle for kernel 0 is = 505000
Simulation cycle for kernel 0 is = 510000
Simulation cycle for kernel 0 is = 515000
Simulation cycle for kernel 0 is = 520000
Simulation cycle for kernel 0 is = 525000
Simulation cycle for kernel 0 is = 530000
Simulation cycle for kernel 0 is = 535000
Simulation cycle for kernel 0 is = 540000
Simulation cycle for kernel 0 is = 545000
Simulation cycle for kernel 0 is = 550000
Simulation cycle for kernel 0 is = 555000
Simulation cycle for kernel 0 is = 560000
Simulation cycle for kernel 0 is = 565000
Simulation cycle for kernel 0 is = 570000
Simulation cycle for kernel 0 is = 575000
Simulation cycle for kernel 0 is = 580000
Simulation cycle for kernel 0 is = 585000
Simulation cycle for kernel 0 is = 590000
Simulation cycle for kernel 0 is = 595000
Simulation cycle for kernel 0 is = 600000
Simulation cycle for kernel 0 is = 605000
Simulation cycle for kernel 0 is = 610000
Simulation cycle for kernel 0 is = 615000
Simulation cycle for kernel 0 is = 620000
Simulation cycle for kernel 0 is = 625000
Simulation cycle for kernel 0 is = 630000
Simulation cycle for kernel 0 is = 635000
Simulation cycle for kernel 0 is = 640000
Simulation cycle for kernel 0 is = 645000
Simulation cycle for kernel 0 is = 650000
Simulation cycle for kernel 0 is = 655000
Simulation cycle for kernel 0 is = 660000
Simulation cycle for kernel 0 is = 665000
Simulation cycle for kernel 0 is = 670000
Simulation cycle for kernel 0 is = 675000
Simulation cycle for kernel 0 is = 680000
Simulation cycle for kernel 0 is = 685000
Simulation cycle for kernel 0 is = 690000
Simulation cycle for kernel 0 is = 695000
Simulation cycle for kernel 0 is = 700000
Simulation cycle for kernel 0 is = 705000
Simulation cycle for kernel 0 is = 710000
Simulation cycle for kernel 0 is = 715000
Simulation cycle for kernel 0 is = 720000
Simulation cycle for kernel 0 is = 725000
Simulation cycle for kernel 0 is = 730000
Simulation cycle for kernel 0 is = 735000
Simulation cycle for kernel 0 is = 740000
Simulation cycle for kernel 0 is = 745000
Simulation cycle for kernel 0 is = 750000
Simulation cycle for kernel 0 is = 755000
Simulation cycle for kernel 0 is = 760000
Simulation cycle for kernel 0 is = 765000
Simulation cycle for kernel 0 is = 770000
Simulation cycle for kernel 0 is = 775000
Simulation cycle for kernel 0 is = 780000
Simulation cycle for kernel 0 is = 785000
Simulation cycle for kernel 0 is = 790000
Simulation cycle for kernel 0 is = 795000
Simulation cycle for kernel 0 is = 800000
Simulation cycle for kernel 0 is = 805000
Simulation cycle for kernel 0 is = 810000
Simulation cycle for kernel 0 is = 815000
Simulation cycle for kernel 0 is = 820000
Simulation cycle for kernel 0 is = 825000
Simulation cycle for kernel 0 is = 830000
Simulation cycle for kernel 0 is = 835000
Simulation cycle for kernel 0 is = 840000
Simulation cycle for kernel 0 is = 845000
Simulation cycle for kernel 0 is = 850000
Simulation cycle for kernel 0 is = 855000
Simulation cycle for kernel 0 is = 860000
Simulation cycle for kernel 0 is = 865000
Simulation cycle for kernel 0 is = 870000
Simulation cycle for kernel 0 is = 875000
Simulation cycle for kernel 0 is = 880000
Simulation cycle for kernel 0 is = 885000
Simulation cycle for kernel 0 is = 890000
Simulation cycle for kernel 0 is = 895000
Simulation cycle for kernel 0 is = 900000
Simulation cycle for kernel 0 is = 905000
Destroy streams for kernel 1: size 0
kernel_name = _Z15spmv_csr_scalariPKmPKiPKfS4_Pf 
kernel_launch_uid = 1 
gpu_sim_cycle = 909149
gpu_sim_insn = 5234597
gpu_ipc =       5.7577
gpu_tot_sim_cycle = 909149
gpu_tot_sim_insn = 5234597
gpu_tot_ipc =       5.7577
gpu_tot_issued_cta = 5
gpu_occupancy = 20.7813% 
gpu_tot_occupancy = 20.7813% 
max_total_param_size = 0
gpu_stall_dramfull = 0
gpu_stall_icnt2sh    = 0
partiton_level_parallism =       0.8129
partiton_level_parallism_total  =       0.8129
partiton_level_parallism_util =       1.4878
partiton_level_parallism_util_total  =       1.4878
L2_BW  =      35.5065 GB/Sec
L2_BW_total  =      35.5065 GB/Sec
gpu_total_sim_rate=4020

========= Core cache stats =========
L1I_cache:
	L1I_total_cache_accesses = 0
	L1I_total_cache_misses = 0
	L1I_total_cache_pending_hits = 0
	L1I_total_cache_reservation_fails = 0
L1D_cache:
	L1D_cache_core[0]: Access = 571947, Miss = 292266, Miss_rate = 0.511, Pending_hits = 308, Reservation_fails = 18853
	L1D_cache_core[1]: Access = 441486, Miss = 227755, Miss_rate = 0.516, Pending_hits = 218, Reservation_fails = 23391
	L1D_cache_core[2]: Access = 309606, Miss = 138866, Miss_rate = 0.449, Pending_hits = 172, Reservation_fails = 9413
	L1D_cache_core[3]: Access = 177818, Miss = 73267, Miss_rate = 0.412, Pending_hits = 102, Reservation_fails = 3653
	L1D_cache_core[4]: Access = 54952, Miss = 6869, Miss_rate = 0.125, Pending_hits = 77, Reservation_fails = 393
	L1D_cache_core[5]: Access = 0, Miss = 0, Miss_rate = -nan, Pending_hits = 0, Reservation_fails = 0
	L1D_cache_core[6]: Access = 0, Miss = 0, Miss_rate = -nan, Pending_hits = 0, Reservation_fails = 0
	L1D_cache_core[7]: Access = 0, Miss = 0, Miss_rate = -nan, Pending_hits = 0, Reservation_fails = 0
	L1D_cache_core[8]: Access = 0, Miss = 0, Miss_rate = -nan, Pending_hits = 0, Reservation_fails = 0
	L1D_cache_core[9]: Access = 0, Miss = 0, Miss_rate = -nan, Pending_hits = 0, Reservation_fails = 0
	L1D_cache_core[10]: Access = 0, Miss = 0, Miss_rate = -nan, Pending_hits = 0, Reservation_fails = 0
	L1D_cache_core[11]: Access = 0, Miss = 0, Miss_rate = -nan, Pending_hits = 0, Reservation_fails = 0
	L1D_cache_core[12]: Access = 0, Miss = 0, Miss_rate = -nan, Pending_hits = 0, Reservation_fails = 0
	L1D_cache_core[13]: Access = 0, Miss = 0, Miss_rate = -nan, Pending_hits = 0, Reservation_fails = 0
	L1D_cache_core[14]: Access = 0, Miss = 0, Miss_rate = -nan, Pending_hits = 0, Reservation_fails = 0
	L1D_cache_core[15]: Access = 0, Miss = 0, Miss_rate = -nan, Pending_hits = 0, Reservation_fails = 0
	L1D_cache_core[16]: Access = 0, Miss = 0, Miss_rate = -nan, Pending_hits = 0, Reservation_fails = 0
	L1D_cache_core[17]: Access = 0, Miss = 0, Miss_rate = -nan, Pending_hits = 0, Reservation_fails = 0
	L1D_cache_core[18]: Access = 0, Miss = 0, Miss_rate = -nan, Pending_hits = 0, Reservation_fails = 0
	L1D_cache_core[19]: Access = 0, Miss = 0, Miss_rate = -nan, Pending_hits = 0, Reservation_fails = 0
	L1D_cache_core[20]: Access = 0, Miss = 0, Miss_rate = -nan, Pending_hits = 0, Reservation_fails = 0
	L1D_cache_core[21]: Access = 0, Miss = 0, Miss_rate = -nan, Pending_hits = 0, Reservation_fails = 0
	L1D_cache_core[22]: Access = 0, Miss = 0, Miss_rate = -nan, Pending_hits = 0, Reservation_fails = 0
	L1D_cache_core[23]: Access = 0, Miss = 0, Miss_rate = -nan, Pending_hits = 0, Reservation_fails = 0
	L1D_cache_core[24]: Access = 0, Miss = 0, Miss_rate = -nan, Pending_hits = 0, Reservation_fails = 0
	L1D_cache_core[25]: Access = 0, Miss = 0, Miss_rate = -nan, Pending_hits = 0, Reservation_fails = 0
	L1D_cache_core[26]: Access = 0, Miss = 0, Miss_rate = -nan, Pending_hits = 0, Reservation_fails = 0
	L1D_cache_core[27]: Access = 0, Miss = 0, Miss_rate = -nan, Pending_hits = 0, Reservation_fails = 0
	L1D_cache_core[28]: Access = 0, Miss = 0, Miss_rate = -nan, Pending_hits = 0, Reservation_fails = 0
	L1D_cache_core[29]: Access = 0, Miss = 0, Miss_rate = -nan, Pending_hits = 0, Reservation_fails = 0
	L1D_total_cache_accesses = 1555809
	L1D_total_cache_misses = 739023
	L1D_total_cache_miss_rate = 0.4750
	L1D_total_cache_pending_hits = 877
	L1D_total_cache_reservation_fails = 55703
	L1D_cache_data_port_util = 0.317
	L1D_cache_fill_port_util = 0.287
L1C_cache:
	L1C_total_cache_accesses = 0
	L1C_total_cache_misses = 0
	L1C_total_cache_pending_hits = 0
	L1C_total_cache_reservation_fails = 0
L1T_cache:
	L1T_total_cache_accesses = 0
	L1T_total_cache_misses = 0
	L1T_total_cache_pending_hits = 0
	L1T_total_cache_reservation_fails = 0

Total_core_cache_stats:
	Total_core_cache_stats_breakdown[GLOBAL_ACC_R][HIT] = 815906
	Total_core_cache_stats_breakdown[GLOBAL_ACC_R][HIT_RESERVED] = 877
	Total_core_cache_stats_breakdown[GLOBAL_ACC_R][MISS] = 657820
	Total_core_cache_stats_breakdown[GLOBAL_ACC_R][RESERVATION_FAIL] = 55703
	Total_core_cache_stats_breakdown[GLOBAL_ACC_R][SECTOR_MISS] = 81047
	Total_core_cache_stats_breakdown[GLOBAL_ACC_R][MSHR_HIT] = 877
	Total_core_cache_stats_breakdown[LOCAL_ACC_R][HIT] = 0
	Total_core_cache_stats_breakdown[LOCAL_ACC_R][HIT_RESERVED] = 0
	Total_core_cache_stats_breakdown[LOCAL_ACC_R][MISS] = 0
	Total_core_cache_stats_breakdown[LOCAL_ACC_R][RESERVATION_FAIL] = 0
	Total_core_cache_stats_breakdown[LOCAL_ACC_R][SECTOR_MISS] = 0
	Total_core_cache_stats_breakdown[LOCAL_ACC_R][MSHR_HIT] = 0
	Total_core_cache_stats_breakdown[CONST_ACC_R][HIT] = 0
	Total_core_cache_stats_breakdown[CONST_ACC_R][HIT_RESERVED] = 0
	Total_core_cache_stats_breakdown[CONST_ACC_R][MISS] = 0
	Total_core_cache_stats_breakdown[CONST_ACC_R][RESERVATION_FAIL] = 0
	Total_core_cache_stats_breakdown[CONST_ACC_R][SECTOR_MISS] = 0
	Total_core_cache_stats_breakdown[CONST_ACC_R][MSHR_HIT] = 0
	Total_core_cache_stats_breakdown[TEXTURE_ACC_R][HIT] = 0
	Total_core_cache_stats_breakdown[TEXTURE_ACC_R][HIT_RESERVED] = 0
	Total_core_cache_stats_breakdown[TEXTURE_ACC_R][MISS] = 0
	Total_core_cache_stats_breakdown[TEXTURE_ACC_R][RESERVATION_FAIL] = 0
	Total_core_cache_stats_breakdown[TEXTURE_ACC_R][SECTOR_MISS] = 0
	Total_core_cache_stats_breakdown[TEXTURE_ACC_R][MSHR_HIT] = 0
	Total_core_cache_stats_breakdown[GLOBAL_ACC_W][HIT] = 3
	Total_core_cache_stats_breakdown[GLOBAL_ACC_W][HIT_RESERVED] = 0
	Total_core_cache_stats_breakdown[GLOBAL_ACC_W][MISS] = 39
	Total_core_cache_stats_breakdown[GLOBAL_ACC_W][RESERVATION_FAIL] = 0
	Total_core_cache_stats_breakdown[GLOBAL_ACC_W][SECTOR_MISS] = 117
	Total_core_cache_stats_breakdown[GLOBAL_ACC_W][MSHR_HIT] = 0
	Total_core_cache_stats_breakdown[LOCAL_ACC_W][HIT] = 0
	Total_core_cache_stats_breakdown[LOCAL_ACC_W][HIT_RESERVED] = 0
	Total_core_cache_stats_breakdown[LOCAL_ACC_W][MISS] = 0
	Total_core_cache_stats_breakdown[LOCAL_ACC_W][RESERVATION_FAIL] = 0
	Total_core_cache_stats_breakdown[LOCAL_ACC_W][SECTOR_MISS] = 0
	Total_core_cache_stats_breakdown[LOCAL_ACC_W][MSHR_HIT] = 0
	Total_core_cache_stats_breakdown[L1_WRBK_ACC][HIT] = 0
	Total_core_cache_stats_breakdown[L1_WRBK_ACC][HIT_RESERVED] = 0
	Total_core_cache_stats_breakdown[L1_WRBK_ACC][MISS] = 0
	Total_core_cache_stats_breakdown[L1_WRBK_ACC][RESERVATION_FAIL] = 0
	Total_core_cache_stats_breakdown[L1_WRBK_ACC][SECTOR_MISS] = 0
	Total_core_cache_stats_breakdown[L1_WRBK_ACC][MSHR_HIT] = 0
	Total_core_cache_stats_breakdown[L2_WRBK_ACC][HIT] = 0
	Total_core_cache_stats_breakdown[L2_WRBK_ACC][HIT_RESERVED] = 0
	Total_core_cache_stats_breakdown[L2_WRBK_ACC][MISS] = 0
	Total_core_cache_stats_breakdown[L2_WRBK_ACC][RESERVATION_FAIL] = 0
	Total_core_cache_stats_breakdown[L2_WRBK_ACC][SECTOR_MISS] = 0
	Total_core_cache_stats_breakdown[L2_WRBK_ACC][MSHR_HIT] = 0
	Total_core_cache_stats_breakdown[INST_ACC_R][HIT] = 0
	Total_core_cache_stats_breakdown[INST_ACC_R][HIT_RESERVED] = 0
	Total_core_cache_stats_breakdown[INST_ACC_R][MISS] = 0
	Total_core_cache_stats_breakdown[INST_ACC_R][RESERVATION_FAIL] = 0
	Total_core_cache_stats_breakdown[INST_ACC_R][SECTOR_MISS] = 0
	Total_core_cache_stats_breakdown[INST_ACC_R][MSHR_HIT] = 0
	Total_core_cache_stats_breakdown[L1_WR_ALLOC_R][HIT] = 0
	Total_core_cache_stats_breakdown[L1_WR_ALLOC_R][HIT_RESERVED] = 0
	Total_core_cache_stats_breakdown[L1_WR_ALLOC_R][MISS] = 0
	Total_core_cache_stats_breakdown[L1_WR_ALLOC_R][RESERVATION_FAIL] = 0
	Total_core_cache_stats_breakdown[L1_WR_ALLOC_R][SECTOR_MISS] = 0
	Total_core_cache_stats_breakdown[L1_WR_ALLOC_R][MSHR_HIT] = 0
	Total_core_cache_stats_breakdown[L2_WR_ALLOC_R][HIT] = 0
	Total_core_cache_stats_breakdown[L2_WR_ALLOC_R][HIT_RESERVED] = 0
	Total_core_cache_stats_breakdown[L2_WR_ALLOC_R][MISS] = 0
	Total_core_cache_stats_breakdown[L2_WR_ALLOC_R][RESERVATION_FAIL] = 0
	Total_core_cache_stats_breakdown[L2_WR_ALLOC_R][SECTOR_MISS] = 0
	Total_core_cache_stats_breakdown[L2_WR_ALLOC_R][MSHR_HIT] = 0
	Total_core_cache_stats_breakdown[GLOBAL_ACC_R][TOTAL_ACCESS] = 1555650
	Total_core_cache_stats_breakdown[GLOBAL_ACC_W][TOTAL_ACCESS] = 159

Total_core_cache_fail_stats:
	Total_core_cache_fail_stats_breakdown[GLOBAL_ACC_R][MISS_QUEUE_FULL] = 55703
ctas_completed 5, Shader 0 warp_id issue ditsribution:
warp_id:
0, 1, 2, 3, 4, 5, 6, 7, 
distro:
8375, 8288, 8172, 7563, 7650, 7621, 7041, 6896, 
gpgpu_n_tot_thrd_icount = 5469536
gpgpu_n_tot_w_icount = 170923
gpgpu_n_stall_shd_mem = 634773
gpgpu_n_mem_read_local = 0
gpgpu_n_mem_write_local = 0
gpgpu_n_mem_read_global = 738867
gpgpu_n_mem_write_global = 159
gpgpu_n_mem_texture = 0
gpgpu_n_mem_const = 0
gpgpu_n_load_insn  = 2146203
gpgpu_n_store_insn = 1272
gpgpu_n_shmem_insn = 0
gpgpu_n_sstarr_insn = 0
gpgpu_n_tex_insn = 0
gpgpu_n_const_mem_insn = 0
gpgpu_n_param_mem_insn = 7680
gpgpu_n_shmem_bkconflict = 0
gpgpu_n_cache_bkconflict = 0
gpgpu_n_intrawarp_mshr_merge = 0
gpgpu_n_cmem_portconflict = 0
gpgpu_stall_shd_mem[c_mem][resource_stall] = 0
gpgpu_stall_shd_mem[s_mem][bk_conf] = 0
gpgpu_stall_shd_mem[gl_mem][resource_stall] = 567680
gpgpu_stall_shd_mem[gl_mem][coal_stall] = 67093
gpgpu_stall_shd_mem[gl_mem][data_port_stall] = 0
gpu_reg_bank_conflict_stalls = 0
Warp Occupancy Distribution:
Stall:665	W0_Idle:884506	W0_Scoreboard:9248062	W1:650	W2:476	W3:260	W4:471	W5:350	W6:483	W7:304	W8:1761	W9:314	W10:362	W11:205	W12:255	W13:268	W14:362	W15:273	W16:959	W17:366	W18:378	W19:255	W20:304	W21:276	W22:251	W23:309	W24:820	W25:460	W26:293	W27:441	W28:380	W29:538	W30:522	W31:928	W32:156649
single_issue_nums: WS0:46224	WS1:43498	WS2:41990	WS3:39211	
dual_issue_nums: WS0:0	WS1:0	WS2:0	WS3:0	
traffic_breakdown_coretomem[GLOBAL_ACC_R] = 5910936 {8:738867,}
traffic_breakdown_coretomem[GLOBAL_ACC_W] = 6360 {40:159,}
traffic_breakdown_memtocore[GLOBAL_ACC_R] = 29554680 {40:738867,}
traffic_breakdown_memtocore[GLOBAL_ACC_W] = 1272 {8:159,}
maxmflatency = 614 
max_icnt2mem_latency = 161 
maxmrqlatency = 191 
max_icnt2sh_latency = 73 
averagemflatency = 262 
avg_icnt2mem_latency = 40 
avg_mrq_latency = 0 
avg_icnt2sh_latency = 2 
mrq_lat_table:132169 	243 	514 	2261 	2970 	122 	32 	8 	0 	0 	0 	0 	0 	0 	0 	0 	0 	0 	0 	0 	0 	0 	0 	0 	0 	0 	0 	0 	0 	0 	0 	0 	
dq_lat_table:0 	0 	0 	0 	0 	0 	0 	0 	0 	0 	0 	0 	0 	0 	0 	0 	0 	0 	0 	0 	0 	0 	0 	0 	0 	0 	0 	0 	0 	0 	0 	0 	
mf_lat_table:0 	0 	0 	0 	0 	0 	0 	587448 	151539 	39 	0 	0 	0 	0 	0 	0 	0 	0 	0 	0 	0 	0 	0 	0 	0 	0 	0 	0 	0 	0 	0 	0 	
icnt2mem_lat_table:0 	0 	0 	0 	0 	732736 	6196 	94 	0 	0 	0 	0 	0 	0 	0 	0 	0 	0 	0 	0 	0 	0 	0 	0 	
icnt2sh_lat_table:0 	639171 	85925 	12887 	992 	47 	4 	0 	0 	0 	0 	0 	0 	0 	0 	0 	0 	0 	0 	0 	0 	0 	0 	0 	
mf_lat_pw_table:0 	0 	0 	0 	0 	0 	0 	121 	783 	0 	0 	0 	0 	0 	0 	0 	0 	0 	0 	0 	0 	0 	0 	0 	0 	0 	0 	0 	0 	0 	0 	0 	
maximum concurrent accesses to same row:
dram[0]:        16        16         5         4         6         8        10        11         8        10        11        11         5         7         6         5 
dram[1]:        16        16         6         4         8        10         8         8        10         7        11        11         5         5         6        11 
dram[2]:        16        16         3         5        10        10         8         8         7         7         9         9         5         7        12         8 
dram[3]:        16        15         7         7         5         5         8         8         7         4         9         8         6         8        11        13 
dram[4]:        12        12         7         6         4         4         8         8         4         3         8         8         8         8        13        14 
dram[5]:        12        12         6         6         5         6         7         8         8         5         8        11         6         6        15         8 
dram[6]:        12        12         6        15         5         6         8         9         7         4        11         9         6         9         5         5 
dram[7]:        12        12        15        13         6         8         6         4         6         6         9         5         7         8         6         4 
dram[8]:        12        12         9         9         6         6         5         5         6         7         9         8         7         8         5         5 
dram[9]:        12        12         5         5         8         6         6         7         5         6         7         7         6         7         5         5 
dram[10]:        12        12         6         7         5         5         6         7         5         5         8         7         7         7         6         6 
dram[11]:        12        12        12        12         7         7         8         6         7         8         8        11         6         4         7         7 
maximum service time to same row:
dram[0]:     14145     14755     52188     58742     28212     27865     96705    108994     33787     45951     23469     35744     40943     23338     46037     46299 
dram[1]:     21485     22947     24358     25612     46593     56775     20667     32865     45680     23470     38210     38037     29420     41624     46325     28061 
dram[2]:     21611     30870     25486     25347     56337     56198     32649     32276     40024     58649     26759     27119     26413     32502     36215     48658 
dram[3]:     34670     37576     25266     18388     56123     56136     22925     53330     98971     14995     35376     41726     32345     67166     25711     23130 
dram[4]:     37583     34412     30985     34787     28176     28031     53225     53171     19833     32007     44173     45233     42797     64184     30899     30844 
dram[5]:     20509     24381     54263     54282     27570     27059     45453     57898     31770     34410     47218     39717     64145     22101     31091     37281 
dram[6]:     24423     20444     56111     74722     36016     35646     58027     30148     46628     28904     39637     25852     35168     36984     37542     49400 
dram[7]:     25741     25465     74729     52240     32085     47115     30101     30011     35912     39987     25640     29699     37097     27123     18047     36276 
dram[8]:     37691     37576     28006     27904     46629     50651     29745     29534     92786     92753     29495     31268     31562     37826     13676     27060 
dram[9]:     43774     50240     27722     27643     63049     63062     35260     35040     16374     16701     37355     31272     23469     44772     27270     27214 
dram[10]:     42947     35222     36872     42892     58442     58787     34748     17983     23414     23167     56361     23452     44675     46814     27777     28770 
dram[11]:     41417     53029     42735     44711     20089     28331     52427     27596     27797     34003     47331     15965     45989     40908     41798     46337 
average row accesses per activate:
dram[0]:  1.234219  1.234426  1.181818  1.157393  1.178404  1.198374  1.193396  1.180835  1.144393  1.166667  1.146141  1.145695  1.145215  1.135762  1.149007  1.144975 
dram[1]:  1.253707  1.215461  1.194719  1.158147  1.189543  1.181380  1.185758  1.203498  1.167480  1.148649  1.144295  1.151361  1.145516  1.129784  1.176768  1.192568 
dram[2]:  1.233831  1.230263  1.134675  1.183413  1.167732  1.164537  1.185535  1.191291  1.157895  1.137931  1.143770  1.121875  1.140728  1.151463  1.199341  1.191176 
dram[3]:  1.247039  1.225443  1.165017  1.179832  1.161937  1.123559  1.162577  1.152411  1.109091  1.118333  1.141066  1.144444  1.158813  1.153846  1.213333  1.203279 
dram[4]:  1.206522  1.184049  1.171477  1.155779  1.112903  1.097027  1.144882  1.132420  1.115570  1.083851  1.138148  1.129430  1.158678  1.141914  1.194489  1.205255 
dram[5]:  1.158983  1.141447  1.145600  1.176568  1.107425  1.102964  1.118541  1.128086  1.099698  1.092954  1.121306  1.147465  1.148649  1.138614  1.189015  1.128776 
dram[6]:  1.124386  1.146819  1.171429  1.162829  1.105263  1.105263  1.124424  1.130699  1.099071  1.100741  1.148092  1.149533  1.156863  1.136858  1.106349  1.126806 
dram[7]:  1.183051  1.163907  1.173267  1.187296  1.117199  1.122542  1.134052  1.121212  1.105581  1.126888  1.140187  1.134585  1.131298  1.152276  1.133224  1.116129 
dram[8]:  1.175676  1.161889  1.180328  1.172078  1.113943  1.144377  1.135878  1.146379  1.124807  1.147967  1.125984  1.132492  1.143077  1.157812  1.131092  1.147458 
dram[9]:  1.200000  1.186555  1.179739  1.185971  1.165354  1.160938  1.169985  1.169492  1.137318  1.147673  1.145136  1.110236  1.151938  1.158556  1.134552  1.122150 
dram[10]:  1.164430  1.170000  1.194127  1.208403  1.162717  1.148903  1.172840  1.189441  1.149593  1.138583  1.133013  1.118211  1.150555  1.142857  1.140753  1.166113 
dram[11]:  1.175123  1.189145  1.193388  1.181818  1.149068  1.159810  1.185243  1.192616  1.147014  1.140673  1.137705  1.130856  1.145570  1.132701  1.181518  1.187605 
average row locality = 138319/119743 = 1.155132
number of total memory accesses made:
dram[0]:         0         0         0         0         0         0         0         0         0         0         0         0         0         0         0         0 
dram[1]:         0         0         0         0         0         0         0         0         0         0         0         0         0         0         0         0 
dram[2]:         0         0         0         0         0         0         0         0         0         0         0         0         0         0         0         0 
dram[3]:         0         0         0         0         0         0         0         0         0         0         0         0         0         0         0         0 
dram[4]:         0         0         0         0         0         0         0         0         0         0         0         0         0         0         0         0 
dram[5]:         0         0         0         0         0         0         0         0         0         0         0         0         0         0         0         0 
dram[6]:         0         0         0         0         0         0         0         0         0         0         0         0         0         0         0         0 
dram[7]:         0         0         0         0         0         0         0         0         0         0         0         0         0         0         0         0 
dram[8]:         0         0         0         0         0         0         0         0         0         0         0         0         0         0         0         0 
dram[9]:         0         0         0         0         0         0         0         0         0         0         0         0         0         0         0         0 
dram[10]:         0         0         0         0         0         0         0         0         0         0         0         0         0         0         0         0 
dram[11]:         0         0         0         0         0         0         0         0         0         0         0         0         0         0         0         0 
total accesses: 0
min_bank_accesses = 0!
min_chip_accesses = 0!
number of total read accesses:
dram[0]:       743       753       741       728       753       737       759       764       744       741       698       692       694       686       694       695 
dram[1]:       761       739       724       725       728       736       766       757       717       679       682       677       677       679       699       706 
dram[2]:       744       748       733       742       731       729       754       766       681       692       716       718       689       669       728       729 
dram[3]:       737       761       706       702       696       682       758       741       670       670       728       721       664       675       728       734 
dram[4]:       777       772       690       690       690       701       727       744       694       697       725       733       701       692       737       734 
dram[5]:       729       694       716       713       701       707       736       731       727       728       721       747       680       690       736       710 
dram[6]:       687       703       697       707       714       735       732       744       710       743       752       738       708       731       697       702 
dram[7]:       698       703       711       729       734       742       736       740       733       746       732       725       741       734       689       692 
dram[8]:       696       689       720       722       743       753       744       744       730       706       715       718       743       741       673       677 
dram[9]:       696       706       722       727       740       743       764       759       704       715       718       705       743       738       683       689 
dram[10]:       694       702       732       719       736       733       760       766       707       723       707       700       726       736       697       702 
dram[11]:       718       723       722       741       740       733       755       743       749       745       694       700       724       717       716       709 
total dram reads = 138306
bank skew: 777/664 = 1.17
chip skew: 11629/11373 = 1.02
number of total write accesses:
dram[0]:         0         0         0         0         0         0         0         0         4         4         0         0         0         0         0         0 
dram[1]:         0         0         0         0         0         0         0         0         4         4         0         0         0         0         0         0 
dram[2]:         0         0         0         0         0         0         0         0         4         4         0         0         0         0         0         0 
dram[3]:         0         0         0         0         0         0         0         0         4         4         0         0         0         0         0         0 
dram[4]:         0         0         0         0         0         0         0         0         4         4         0         0         0         0         0         0 
dram[5]:         0         0         0         0         0         0         0         0         4         3         0         0         0         0         0         0 
dram[6]:         0         0         0         0         0         0         0         0         0         0         0         0         0         0         0         0 
dram[7]:         0         0         0         0         0         0         0         0         0         0         0         0         0         0         0         0 
dram[8]:         0         0         0         0         0         0         0         0         0         0         0         0         0         0         0         0 
dram[9]:         0         0         0         0         0         0         0         0         0         0         0         0         0         0         0         0 
dram[10]:         0         0         0         0         0         0         0         0         0         0         0         0         0         0         0         0 
dram[11]:         0         0         0         0         0         0         0         0         0         4         0         0         0         0         0         0 
total dram writes = 51
min_bank_accesses = 0!
min_chip_accesses = 0!
average mf latency per bank:
dram[0]:       1393      1317      1455      1413      1359      1329      1462      1373      1475      1392      1497      1412      1453      1425      1481      1406
dram[1]:       1304      1356      1435      1432      1317      1288      1372      1352      1440      1528      1380      1390      1434      1450      1383      1393
dram[2]:       1410      1341      1454      1357      1323      1301      1345      1253      1603      1577      1390      1336      1494      1509      1408      1346
dram[3]:       1335      1285      1390      1387      1390      1483      1283      1294      1690      1672      1307      1403      1524      1498      1352      1321
dram[4]:       1301      1245      1482      1400      1569      1438      1393      1436      1698      1544      1470      1416      1470      1413      1375      1218
dram[5]:       1292      1398      1331      1415      1417      1351      1436      1431      1439      1437      1441      1274      1406      1352      1209      1389
dram[6]:       1480      1378      1481      1397      1360      1274      1492      1392      1574      1478      1309      1376      1372      1324      1457      1381
dram[7]:       1364      1346      1396      1383      1318      1303      1421      1412      1488      1523      1300      1315      1319      1363      1357      1353
dram[8]:       1442      1397      1488      1449      1402      1348      1393      1336      1653      1609      1364      1276      1413      1340      1465      1434
dram[9]:       1421      1401      1461      1420      1380      1369      1271      1277      1565      1576      1285      1423      1299      1325      1446      1416
dram[10]:       1483      1425      1464      1410      1458      1383      1343      1335      1643      1529      1497      1402      1394      1306      1456      1377
dram[11]:       1371      1378      1398      1363      1374      1352      1369      1395      1435      1458      1444      1447      1312      1339      1332      1382
maximum mf latency per bank:
dram[0]:        411       420       418       405       464       406       398       426       482       484       453       413       492       470       440       480
dram[1]:        453       423       400       464       405       453       485       470       485       448       439       398       429       480       446       411
dram[2]:        426       432       399       417       407       517       431       450       496       437       407       394       398       421       421       399
dram[3]:        455       563       402       471       614       500       452       467       401       428       532       527       580       456       511       556
dram[4]:        457       557       572       497       469       404       553       551       452       484       473       467       433       417       489       584
dram[5]:        403       427       462       402       406       437       453       475       472       452       491       446       515       505       515       517
dram[6]:        446       405       419       412       406       399       403       497       447       458       401       420       513       416       400       499
dram[7]:        409       403       435       441       406       403       489       397       496       478       479       456       397       433       404       453
dram[8]:        420       454       401       409       410       432       482       400       413       401       418       480       440       420       444       407
dram[9]:        425       413       404       433       417       477       399       491       424       413       425       438       409       456       400       469
dram[10]:        418       410       420       401       495       503       506       440       412       440       432       453       445       428       509       469
dram[11]:        466       403       469       466       525       394       472       496       482       460       431       428       502       404       432       561

Number of Memory Banks Accessed per Memory Operation per Warp (from 0):
0	0	0	0	0	0	0	0	0	0	0	0	0	0	0	0	0	0	0	0	0	0	0	0	0	0	0	0	0	0	0	0	0	0	0	0	0	0	0	0	0	0	0	0	0	0	0	0	0	0	0	0	0	0	0	0	0	0	0	0	0	0	0	0	0	0	0	0	0	0	0	0	0	0	0	0	0	0	0	0	0	0	0	0	0	0	0	0	0	0	0	0	0	0	0	0	0	0	0	0	0	0	0	0	0	0	0	0	0	0	0	0	0	0	0	0	0	0	0	0	0	0	0	0	0	0	0	0	0	0	0	0	0	0	0	0	0	0	0	0	0	0	0	0	0	0	0	0	0	0	0	0	0	0	0	0	0	0	0	0	0	0	0	0	0	0	0	0	0	0	0	0	0	0	0	0	0	0	0	0	0	0	0	0	0	0	0	0	0	0	0	0	
Average # of Memory Banks Accessed per Memory Operation per Warp=-nan

position of mrq chosen
0	0	0	0	0	0	0	0	0	0	0	0	0	0	0	0	0	0	0	0	0	0	0	0	0	0	0	0	0	0	0	0	0	0	0	0	0	0	0	0	0	0	0	0	0	0	0	0	0	0	0	0	0	0	0	0	0	0	0	0	0	0	0	0	

average position of mrq chosen = -nan
Memory Partition 0: 
Cache L2_bank_000:
MSHR contents

Cache L2_bank_001:
MSHR contents

In Dram Latency Queue (total = 0): 
DRAM[0]: 16 bks, busW=2 BL=16 CL=24, tRRD=12 tCCD=4, tRCD=24 tRAS=55 tRP=24 tRC=78
n_cmd=2331482 n_nop=2300057 n_act=9930 n_pre=9914 n_ref_event=4572360550251980812 n_req=11624 n_rd=11622 n_rd_L2_A=0 n_write=0 n_wr_bk=8 bw_util=0.01995
n_activity=773271 dram_eff=0.06016
bk0: 743a 2301381i bk1: 753a 2300897i bk2: 741a 2300155i bk3: 728a 2299898i bk4: 753a 2299374i bk5: 737a 2300464i bk6: 759a 2299490i bk7: 764a 2298950i bk8: 744a 2298696i bk9: 741a 2299405i bk10: 698a 2301039i bk11: 692a 2301234i bk12: 694a 2300947i bk13: 686a 2300978i bk14: 694a 2301123i bk15: 695a 2301044i 

------------------------------------------------------------------------

Row_Buffer_Locality = 0.146077
Row_Buffer_Locality_read = 0.146102
Row_Buffer_Locality_write = 0.000000
Bank_Level_Parallism = 1.173282
Bank_Level_Parallism_Col = 1.393680
Bank_Level_Parallism_Ready = 1.001797
write_to_read_ratio_blp_rw_average = 0.000352
GrpLevelPara = 1.053612 

BW Util details:
bwutil = 0.019953 
total_CMD = 2331482 
util_bw = 46520 
Wasted_Col = 218278 
Wasted_Row = 186409 
Idle = 1880275 

BW Util Bottlenecks: 
RCDc_limit = 230149 
RCDWRc_limit = 24 
WTRc_limit = 24 
RTWc_limit = 36 
CCDLc_limit = 1707 
rwq = 0 
CCDLc_limit_alone = 1697 
WTRc_limit_alone = 16 
RTWc_limit_alone = 34 

Commands details: 
total_CMD = 2331482 
n_nop = 2300057 
Read = 11622 
Write = 0 
L2_Alloc = 0 
L2_WB = 8 
n_act = 9930 
n_pre = 9914 
n_ref = 4572360550251980812 
n_req = 11624 
total_req = 11630 

Dual Bus Interface Util: 
issued_total_row = 19844 
issued_total_col = 11630 
Row_Bus_Util =  0.008511 
CoL_Bus_Util = 0.004988 
Either_Row_CoL_Bus_Util = 0.013479 
Issued_on_Two_Bus_Simul_Util = 0.000021 
issued_two_Eff = 0.001559 
queue_avg = 0.008881 


dram_util_bins: 0 0 0 0 0 0 0 0 0 0
dram_eff_bins: 0 0 0 0 0 0 0 0 0 0
mrqq: max=6 avg=0.00888062
Memory Partition 1: 
Cache L2_bank_002:
MSHR contents

Cache L2_bank_003:
MSHR contents

In Dram Latency Queue (total = 0): 
DRAM[1]: 16 bks, busW=2 BL=16 CL=24, tRRD=12 tCCD=4, tRCD=24 tRAS=55 tRP=24 tRC=78
[...]
bk0: 687a 2300551i bk1: 703a 2300694i bk2: 697a 2301625i bk3: 707a 2300963i bk4: 714a 2299283i bk5: 735a 2298259i bk6: 732a 2298837i bk7: 744a 2298248i bk8: 710a 2298981i bk9: 743a 2297678i bk10: 752a 2298479i bk11: 738a 2299199i bk12: 708a 2300660i bk13: 731a 2299269i bk14: 697a 2299504i bk15: 702a 2300094i 

------------------------------------------------------------------------

Row_Buffer_Locality = 0.115391
Row_Buffer_Locality_read = 0.115391
Row_Buffer_Locality_write = -nan
Bank_Level_Parallism = 1.183450
Bank_Level_Parallism_Col = 1.798530
Bank_Level_Parallism_Ready = 1.000691
write_to_read_ratio_blp_rw_average = 0.000000
GrpLevelPara = 0.000000 

BW Util details:
bwutil = 0.019730 
total_CMD = 2331482 
util_bw = 46000 
Wasted_Col = 222420 
Wasted_Row = 189202 
Idle = 1873860 

BW Util Bottlenecks: 
RCDc_limit = 235841 
RCDWRc_limit = 0 
WTRc_limit = 0 
RTWc_limit = 0 
CCDLc_limit = 1369 
rwq = 0 
CCDLc_limit_alone = 1369 
WTRc_limit_alone = 0 
RTWc_limit_alone = 0 

Commands details: 
total_CMD = 2331482 
n_nop = 2299690 
Read = 11500 
Write = 0 
L2_Alloc = 0 
L2_WB = 0 
n_act = 10177 
n_pre = 10161 
n_ref = 7018401997223720033 
n_req = 11500 
total_req = 11500 

Dual Bus Interface Util: 
issued_total_row = 20338 
issued_total_col = 11500 
Row_Bus_Util =  0.008723 
CoL_Bus_Util = 0.004932 
Either_Row_CoL_Bus_Util = 0.013636 
Issued_on_Two_Bus_Simul_Util = 0.000020 
issued_two_Eff = 0.001447 
queue_avg = 0.007343 


dram_util_bins: 0 0 0 0 0 0 0 0 0 0
dram_eff_bins: 0 0 0 0 0 0 0 0 0 0
mrqq: max=8 avg=0.00734297
Memory Partition 7: 
Cache L2_bank_014:
MSHR contents

Cache L2_bank_015:
MSHR contents

In Dram Latency Queue (total = 0): 
DRAM[7]: 16 bks, busW=2 BL=16 CL=24, tRRD=12 tCCD=4, tRCD=24 tRAS=55 tRP=24 tRC=78
n_cmd=2331482 n_nop=2299626 n_act=10170 n_pre=10154 n_ref_event=7018401997223720033 n_req=11585 n_rd=11585 n_rd_L2_A=0 n_write=0 n_wr_bk=0 bw_util=0.01988
n_activity=771720 dram_eff=0.06005
bk0: 698a 2301736i bk1: 703a 2301085i bk2: 711a 2301066i bk3: 729a 2300443i bk4: 734a 2298695i bk5: 742a 2298323i bk6: 736a 2298886i bk7: 740a 2298432i bk8: 733a 2298389i bk9: 746a 2298018i bk10: 732a 2299079i bk11: 725a 2299442i bk12: 741a 2298744i bk13: 734a 2299334i bk14: 689a 2300633i bk15: 692a 2300104i 

------------------------------------------------------------------------

Row_Buffer_Locality = 0.122400
Row_Buffer_Locality_read = 0.122400
Row_Buffer_Locality_write = -nan
Bank_Level_Parallism = 1.189448
Bank_Level_Parallism_Col = 1.798530
Bank_Level_Parallism_Ready = 1.000600
write_to_read_ratio_blp_rw_average = 0.000000
GrpLevelPara = 0.000000 

BW Util details:
bwutil = 0.019876 
total_CMD = 2331482 
util_bw = 46340 
Wasted_Col = 221813 
Wasted_Row = 187323 
Idle = 1876006 

BW Util Bottlenecks: 
RCDc_limit = 235389 
RCDWRc_limit = 0 
WTRc_limit = 0 
RTWc_limit = 0 
CCDLc_limit = 1459 
rwq = 0 
CCDLc_limit_alone = 1459 
WTRc_limit_alone = 0 
RTWc_limit_alone = 0 

Commands details: 
total_CMD = 2331482 
n_nop = 2299626 
Read = 11585 
Write = 0 
L2_Alloc = 0 
L2_WB = 0 
n_act = 10170 
n_pre = 10154 
n_ref = 7018401997223720033 
n_req = 11585 
total_req = 11585 

Dual Bus Interface Util: 
issued_total_row = 20324 
issued_total_col = 11585 
Row_Bus_Util =  0.008717 
CoL_Bus_Util = 0.004969 
Either_Row_CoL_Bus_Util = 0.013663 
Issued_on_Two_Bus_Simul_Util = 0.000023 
issued_two_Eff = 0.001664 
queue_avg = 0.007234 


dram_util_bins: 0 0 0 0 0 0 0 0 0 0
dram_eff_bins: 0 0 0 0 0 0 0 0 0 0
mrqq: max=5 avg=0.00723403
Memory Partition 8: 
Cache L2_bank_016:
MSHR contents

Cache L2_bank_017:
MSHR contents

In Dram Latency Queue (total = 0): 
DRAM[8]: 16 bks, busW=2 BL=16 CL=24, tRRD=12 tCCD=4, tRCD=24 tRAS=55 tRP=24 tRC=78
n_cmd=2331482 n_nop=2299935 n_act=10051 n_pre=10035 n_ref_event=7018401997223720033 n_req=11514 n_rd=11514 n_rd_L2_A=0 n_write=0 n_wr_bk=0 bw_util=0.01975
n_activity=763724 dram_eff=0.0603
bk0: 696a 2301593i bk1: 689a 2301920i bk2: 720a 2301093i bk3: 722a 2300670i bk4: 743a 2298106i bk5: 753a 2298552i bk6: 744a 2298577i bk7: 744a 2298799i bk8: 730a 2298990i bk9: 706a 2300529i bk10: 715a 2299611i bk11: 718a 2299643i bk12: 743a 2298496i bk13: 741a 2299060i bk14: 673a 2301303i bk15: 677a 2301848i 

------------------------------------------------------------------------

Row_Buffer_Locality = 0.127323
Row_Buffer_Locality_read = 0.127323
Row_Buffer_Locality_write = -nan
Bank_Level_Parallism = 1.189010
Bank_Level_Parallism_Col = 1.798530
Bank_Level_Parallism_Ready = 1.001120
write_to_read_ratio_blp_rw_average = 0.000000
GrpLevelPara = 0.000000 

BW Util details:
bwutil = 0.019754 
total_CMD = 2331482 
util_bw = 46056 
Wasted_Col = 219788 
Wasted_Row = 184274 
Idle = 1881364 

BW Util Bottlenecks: 
RCDc_limit = 232746 
RCDWRc_limit = 0 
WTRc_limit = 0 
RTWc_limit = 0 
CCDLc_limit = 1576 
rwq = 0 
CCDLc_limit_alone = 1576 
WTRc_limit_alone = 0 
RTWc_limit_alone = 0 

Commands details: 
total_CMD = 2331482 
n_nop = 2299935 
Read = 11514 
Write = 0 
L2_Alloc = 0 
L2_WB = 0 
n_act = 10051 
n_pre = 10035 
n_ref = 7018401997223720033 
n_req = 11514 
total_req = 11514 

Dual Bus Interface Util: 
issued_total_row = 20086 
issued_total_col = 11514 
Row_Bus_Util =  0.008615 
CoL_Bus_Util = 0.004938 
Either_Row_CoL_Bus_Util = 0.013531 
Issued_on_Two_Bus_Simul_Util = 0.000023 
issued_two_Eff = 0.001680 
queue_avg = 0.007935 


dram_util_bins: 0 0 0 0 0 0 0 0 0 0
dram_eff_bins: 0 0 0 0 0 0 0 0 0 0
mrqq: max=4 avg=0.00793487
Memory Partition 9: 
Cache L2_bank_018:
MSHR contents

Cache L2_bank_019:
MSHR contents

In Dram Latency Queue (total = 0): 
DRAM[9]: 16 bks, busW=2 BL=16 CL=24, tRRD=12 tCCD=4, tRCD=24 tRAS=55 tRP=24 tRC=78
n_cmd=2331482 n_nop=2300038 n_act=9982 n_pre=9966 n_ref_event=7018401997223720033 n_req=11552 n_rd=11552 n_rd_L2_A=0 n_write=0 n_wr_bk=0 bw_util=0.01982
n_activity=757531 dram_eff=0.061
bk0: 696a 2302045i bk1: 706a 2301760i bk2: 722a 2300807i bk3: 727a 2300637i bk4: 740a 2299842i bk5: 743a 2299326i bk6: 764a 2298639i bk7: 759a 2298682i bk8: 704a 2300347i bk9: 715a 2300216i bk10: 718a 2300237i bk11: 705a 2299472i bk12: 743a 2299040i bk13: 738a 2299257i bk14: 683a 2301192i bk15: 689a 2300477i 

------------------------------------------------------------------------

Row_Buffer_Locality = 0.136167
Row_Buffer_Locality_read = 0.136167
Row_Buffer_Locality_write = -nan
Bank_Level_Parallism = 1.188765
Bank_Level_Parallism_Col = 1.798530
Bank_Level_Parallism_Ready = 1.000602
write_to_read_ratio_blp_rw_average = 0.000000
GrpLevelPara = 0.000000 

BW Util details:
bwutil = 0.019819 
total_CMD = 2331482 
util_bw = 46208 
Wasted_Col = 217904 
Wasted_Row = 183451 
Idle = 1883919 

BW Util Bottlenecks: 
RCDc_limit = 231061 
RCDWRc_limit = 0 
WTRc_limit = 0 
RTWc_limit = 0 
CCDLc_limit = 1487 
rwq = 0 
CCDLc_limit_alone = 1487 
WTRc_limit_alone = 0 
RTWc_limit_alone = 0 

Commands details: 
total_CMD = 2331482 
n_nop = 2300038 
Read = 11552 
Write = 0 
L2_Alloc = 0 
L2_WB = 0 
n_act = 9982 
n_pre = 9966 
n_ref = 7018401997223720033 
n_req = 11552 
total_req = 11552 

Dual Bus Interface Util: 
issued_total_row = 19948 
issued_total_col = 11552 
Row_Bus_Util =  0.008556 
CoL_Bus_Util = 0.004955 
Either_Row_CoL_Bus_Util = 0.013487 
Issued_on_Two_Bus_Simul_Util = 0.000024 
issued_two_Eff = 0.001781 
queue_avg = 0.008087 


dram_util_bins: 0 0 0 0 0 0 0 0 0 0
dram_eff_bins: 0 0 0 0 0 0 0 0 0 0
mrqq: max=9 avg=0.00808713
Memory Partition 10: 
Cache L2_bank_020:
MSHR contents

Cache L2_bank_021:
MSHR contents

In Dram Latency Queue (total = 0): 
DRAM[10]: 16 bks, busW=2 BL=16 CL=24, tRRD=12 tCCD=4, tRCD=24 tRAS=55 tRP=24 tRC=78
n_cmd=2331482 n_nop=2300112 n_act=9959 n_pre=9943 n_ref_event=7018401997223720033 n_req=11540 n_rd=11540 n_rd_L2_A=0 n_write=0 n_wr_bk=0 bw_util=0.0198
n_activity=762925 dram_eff=0.0605
bk0: 694a 2301510i bk1: 702a 2301420i bk2: 732a 2300563i bk3: 719a 2301359i bk4: 736a 2299683i bk5: 733a 2299438i bk6: 760a 2298836i bk7: 766a 2298992i bk8: 707a 2300523i bk9: 723a 2299506i bk10: 707a 2300208i bk11: 700a 2300059i bk12: 726a 2299500i bk13: 736a 2298942i bk14: 697a 2300521i bk15: 702a 2300904i 

------------------------------------------------------------------------

Row_Buffer_Locality = 0.137348
Row_Buffer_Locality_read = 0.137348
Row_Buffer_Locality_write = -nan
Bank_Level_Parallism = 1.190464
Bank_Level_Parallism_Col = 1.798530
Bank_Level_Parallism_Ready = 1.000862
write_to_read_ratio_blp_rw_average = 0.000000
GrpLevelPara = 0.000000 

BW Util details:
bwutil = 0.019799 
total_CMD = 2331482 
util_bw = 46160 
Wasted_Col = 217106 
Wasted_Row = 183895 
Idle = 1884321 

BW Util Bottlenecks: 
RCDc_limit = 230338 
RCDWRc_limit = 0 
WTRc_limit = 0 
RTWc_limit = 0 
CCDLc_limit = 1612 
rwq = 0 
CCDLc_limit_alone = 1612 
WTRc_limit_alone = 0 
RTWc_limit_alone = 0 

Commands details: 
total_CMD = 2331482 
n_nop = 2300112 
Read = 11540 
Write = 0 
L2_Alloc = 0 
L2_WB = 0 
n_act = 9959 
n_pre = 9943 
n_ref = 7018401997223720033 
n_req = 11540 
total_req = 11540 

Dual Bus Interface Util: 
issued_total_row = 19902 
issued_total_col = 11540 
Row_Bus_Util =  0.008536 
CoL_Bus_Util = 0.004950 
Either_Row_CoL_Bus_Util = 0.013455 
Issued_on_Two_Bus_Simul_Util = 0.000031 
issued_two_Eff = 0.002295 
queue_avg = 0.008594 


dram_util_bins: 0 0 0 0 0 0 0 0 0 0
dram_eff_bins: 0 0 0 0 0 0 0 0 0 0
mrqq: max=6 avg=0.0085941
Memory Partition 11: 
Cache L2_bank_022:
MSHR contents

Cache L2_bank_023:
MSHR contents

In Dram Latency Queue (total = 0): 
DRAM[11]: 16 bks, busW=2 BL=16 CL=24, tRRD=12 tCCD=4, tRCD=24 tRAS=55 tRP=24 tRC=78
n_cmd=2331482 n_nop=2299936 n_act=9994 n_pre=9978 n_ref_event=7018401997223720033 n_req=11630 n_rd=11629 n_rd_L2_A=0 n_write=0 n_wr_bk=4 bw_util=0.01996
n_activity=771188 dram_eff=0.06034
bk0: 718a 2300580i bk1: 723a 2300883i bk2: 722a 2301189i bk3: 741a 2299830i bk4: 740a 2299099i bk5: 733a 2299921i bk6: 755a 2299494i bk7: 743a 2300121i bk8: 749a 2298745i bk9: 745a 2298552i bk10: 694a 2300717i bk11: 700a 2300157i bk12: 724a 2299593i bk13: 717a 2299784i bk14: 716a 2300961i bk15: 709a 2301146i 

------------------------------------------------------------------------

Row_Buffer_Locality = 0.140929
Row_Buffer_Locality_read = 0.140941
Row_Buffer_Locality_write = 0.000000
Bank_Level_Parallism = 1.180819
Bank_Level_Parallism_Col = 1.798530
Bank_Level_Parallism_Ready = 1.001110
write_to_read_ratio_blp_rw_average = 0.000000
GrpLevelPara = 0.000000 

BW Util details:
bwutil = 0.019958 
total_CMD = 2331482 
util_bw = 46532 
Wasted_Col = 218924 
Wasted_Row = 186602 
Idle = 1879424 

BW Util Bottlenecks: 
RCDc_limit = 231391 
RCDWRc_limit = 12 
WTRc_limit = 0 
RTWc_limit = 18 
CCDLc_limit = 1566 
rwq = 0 
CCDLc_limit_alone = 1564 
WTRc_limit_alone = 0 
RTWc_limit_alone = 16 

Commands details: 
total_CMD = 2331482 
n_nop = 2299936 
Read = 11629 
Write = 0 
L2_Alloc = 0 
L2_WB = 4 
n_act = 9994 
n_pre = 9978 
n_ref = 7018401997223720033 
n_req = 11630 
total_req = 11633 

Dual Bus Interface Util: 
issued_total_row = 19972 
issued_total_col = 11633 
Row_Bus_Util =  0.008566 
CoL_Bus_Util = 0.004990 
Either_Row_CoL_Bus_Util = 0.013530 
Issued_on_Two_Bus_Simul_Util = 0.000025 
issued_two_Eff = 0.001870 
queue_avg = 0.008741 


dram_util_bins: 0 0 0 0 0 0 0 0 0 0
dram_eff_bins: 0 0 0 0 0 0 0 0 0 0
mrqq: max=7 avg=0.00874079

========= L2 cache stats =========
L2_cache_bank[0]: Access = 32209, Miss = 5830, Miss_rate = 0.181, Pending_hits = 1, Reservation_fails = 0
L2_cache_bank[1]: Access = 30482, Miss = 5800, Miss_rate = 0.190, Pending_hits = 0, Reservation_fails = 0
L2_cache_bank[2]: Access = 30285, Miss = 5758, Miss_rate = 0.190, Pending_hits = 0, Reservation_fails = 0
L2_cache_bank[3]: Access = 30334, Miss = 5702, Miss_rate = 0.188, Pending_hits = 0, Reservation_fails = 0
L2_cache_bank[4]: Access = 31466, Miss = 5780, Miss_rate = 0.184, Pending_hits = 0, Reservation_fails = 0
L2_cache_bank[5]: Access = 30287, Miss = 5797, Miss_rate = 0.191, Pending_hits = 0, Reservation_fails = 0
L2_cache_bank[6]: Access = 30467, Miss = 5691, Miss_rate = 0.187, Pending_hits = 0, Reservation_fails = 0
L2_cache_bank[7]: Access = 30648, Miss = 5690, Miss_rate = 0.186, Pending_hits = 0, Reservation_fails = 0
L2_cache_bank[8]: Access = 32220, Miss = 5745, Miss_rate = 0.178, Pending_hits = 1, Reservation_fails = 0
L2_cache_bank[9]: Access = 30396, Miss = 5767, Miss_rate = 0.190, Pending_hits = 0, Reservation_fails = 0
L2_cache_bank[10]: Access = 29961, Miss = 5750, Miss_rate = 0.192, Pending_hits = 0, Reservation_fails = 0
L2_cache_bank[11]: Access = 30044, Miss = 5724, Miss_rate = 0.191, Pending_hits = 0, Reservation_fails = 0
L2_cache_bank[12]: Access = 31304, Miss = 5701, Miss_rate = 0.182, Pending_hits = 0, Reservation_fails = 0
L2_cache_bank[13]: Access = 30328, Miss = 5807, Miss_rate = 0.191, Pending_hits = 0, Reservation_fails = 0
L2_cache_bank[14]: Access = 30085, Miss = 5778, Miss_rate = 0.192, Pending_hits = 0, Reservation_fails = 0
L2_cache_bank[15]: Access = 30377, Miss = 5815, Miss_rate = 0.191, Pending_hits = 0, Reservation_fails = 0
L2_cache_bank[16]: Access = 31972, Miss = 5768, Miss_rate = 0.180, Pending_hits = 2, Reservation_fails = 0
L2_cache_bank[17]: Access = 30585, Miss = 5754, Miss_rate = 0.188, Pending_hits = 0, Reservation_fails = 0
L2_cache_bank[18]: Access = 30514, Miss = 5774, Miss_rate = 0.189, Pending_hits = 0, Reservation_fails = 0
L2_cache_bank[19]: Access = 30816, Miss = 5786, Miss_rate = 0.188, Pending_hits = 0, Reservation_fails = 0
L2_cache_bank[20]: Access = 32293, Miss = 5767, Miss_rate = 0.179, Pending_hits = 0, Reservation_fails = 0
L2_cache_bank[21]: Access = 30691, Miss = 5785, Miss_rate = 0.188, Pending_hits = 0, Reservation_fails = 0
L2_cache_bank[22]: Access = 30518, Miss = 5826, Miss_rate = 0.191, Pending_hits = 0, Reservation_fails = 0
L2_cache_bank[23]: Access = 30744, Miss = 5815, Miss_rate = 0.189, Pending_hits = 0, Reservation_fails = 0
L2_total_cache_accesses = 739026
L2_total_cache_misses = 138410
L2_total_cache_miss_rate = 0.1873
L2_total_cache_pending_hits = 4
L2_total_cache_reservation_fails = 0
L2_total_cache_breakdown:
	L2_cache_stats_breakdown[GLOBAL_ACC_R][HIT] = 600557
	L2_cache_stats_breakdown[GLOBAL_ACC_R][HIT_RESERVED] = 4
	L2_cache_stats_breakdown[GLOBAL_ACC_R][MISS] = 35459
	L2_cache_stats_breakdown[GLOBAL_ACC_R][RESERVATION_FAIL] = 0
	L2_cache_stats_breakdown[GLOBAL_ACC_R][SECTOR_MISS] = 102847
	L2_cache_stats_breakdown[GLOBAL_ACC_R][MSHR_HIT] = 4
	L2_cache_stats_breakdown[LOCAL_ACC_R][HIT] = 0
	L2_cache_stats_breakdown[LOCAL_ACC_R][HIT_RESERVED] = 0
	L2_cache_stats_breakdown[LOCAL_ACC_R][MISS] = 0
	L2_cache_stats_breakdown[LOCAL_ACC_R][RESERVATION_FAIL] = 0
	L2_cache_stats_breakdown[LOCAL_ACC_R][SECTOR_MISS] = 0
	L2_cache_stats_breakdown[LOCAL_ACC_R][MSHR_HIT] = 0
	L2_cache_stats_breakdown[CONST_ACC_R][HIT] = 0
	L2_cache_stats_breakdown[CONST_ACC_R][HIT_RESERVED] = 0
	L2_cache_stats_breakdown[CONST_ACC_R][MISS] = 0
	L2_cache_stats_breakdown[CONST_ACC_R][RESERVATION_FAIL] = 0
	L2_cache_stats_breakdown[CONST_ACC_R][SECTOR_MISS] = 0
	L2_cache_stats_breakdown[CONST_ACC_R][MSHR_HIT] = 0
	L2_cache_stats_breakdown[TEXTURE_ACC_R][HIT] = 0
	L2_cache_stats_breakdown[TEXTURE_ACC_R][HIT_RESERVED] = 0
	L2_cache_stats_breakdown[TEXTURE_ACC_R][MISS] = 0
	L2_cache_stats_breakdown[TEXTURE_ACC_R][RESERVATION_FAIL] = 0
	L2_cache_stats_breakdown[TEXTURE_ACC_R][SECTOR_MISS] = 0
	L2_cache_stats_breakdown[TEXTURE_ACC_R][MSHR_HIT] = 0
	L2_cache_stats_breakdown[GLOBAL_ACC_W][HIT] = 55
	L2_cache_stats_breakdown[GLOBAL_ACC_W][HIT_RESERVED] = 0
	L2_cache_stats_breakdown[GLOBAL_ACC_W][MISS] = 26
	L2_cache_stats_breakdown[GLOBAL_ACC_W][RESERVATION_FAIL] = 0
	L2_cache_stats_breakdown[GLOBAL_ACC_W][SECTOR_MISS] = 78
	L2_cache_stats_breakdown[GLOBAL_ACC_W][MSHR_HIT] = 0
	L2_cache_stats_breakdown[LOCAL_ACC_W][HIT] = 0
	L2_cache_stats_breakdown[LOCAL_ACC_W][HIT_RESERVED] = 0
	L2_cache_stats_breakdown[LOCAL_ACC_W][MISS] = 0
	L2_cache_stats_breakdown[LOCAL_ACC_W][RESERVATION_FAIL] = 0
	L2_cache_stats_breakdown[LOCAL_ACC_W][SECTOR_MISS] = 0
	L2_cache_stats_breakdown[LOCAL_ACC_W][MSHR_HIT] = 0
	L2_cache_stats_breakdown[L1_WRBK_ACC][HIT] = 0
	L2_cache_stats_breakdown[L1_WRBK_ACC][HIT_RESERVED] = 0
	L2_cache_stats_breakdown[L1_WRBK_ACC][MISS] = 0
	L2_cache_stats_breakdown[L1_WRBK_ACC][RESERVATION_FAIL] = 0
	L2_cache_stats_breakdown[L1_WRBK_ACC][SECTOR_MISS] = 0
	L2_cache_stats_breakdown[L1_WRBK_ACC][MSHR_HIT] = 0
	L2_cache_stats_breakdown[L2_WRBK_ACC][HIT] = 0
	L2_cache_stats_breakdown[L2_WRBK_ACC][HIT_RESERVED] = 0
	L2_cache_stats_breakdown[L2_WRBK_ACC][MISS] = 0
	L2_cache_stats_breakdown[L2_WRBK_ACC][RESERVATION_FAIL] = 0
	L2_cache_stats_breakdown[L2_WRBK_ACC][SECTOR_MISS] = 0
	L2_cache_stats_breakdown[L2_WRBK_ACC][MSHR_HIT] = 0
	L2_cache_stats_breakdown[INST_ACC_R][HIT] = 0
	L2_cache_stats_breakdown[INST_ACC_R][HIT_RESERVED] = 0
	L2_cache_stats_breakdown[INST_ACC_R][MISS] = 0
	L2_cache_stats_breakdown[INST_ACC_R][RESERVATION_FAIL] = 0
	L2_cache_stats_breakdown[INST_ACC_R][SECTOR_MISS] = 0
	L2_cache_stats_breakdown[INST_ACC_R][MSHR_HIT] = 0
	L2_cache_stats_breakdown[L1_WR_ALLOC_R][HIT] = 0
	L2_cache_stats_breakdown[L1_WR_ALLOC_R][HIT_RESERVED] = 0
	L2_cache_stats_breakdown[L1_WR_ALLOC_R][MISS] = 0
	L2_cache_stats_breakdown[L1_WR_ALLOC_R][RESERVATION_FAIL] = 0
	L2_cache_stats_breakdown[L1_WR_ALLOC_R][SECTOR_MISS] = 0
	L2_cache_stats_breakdown[L1_WR_ALLOC_R][MSHR_HIT] = 0
	L2_cache_stats_breakdown[L2_WR_ALLOC_R][HIT] = 0
	L2_cache_stats_breakdown[L2_WR_ALLOC_R][HIT_RESERVED] = 0
	L2_cache_stats_breakdown[L2_WR_ALLOC_R][MISS] = 0
	L2_cache_stats_breakdown[L2_WR_ALLOC_R][RESERVATION_FAIL] = 0
	L2_cache_stats_breakdown[L2_WR_ALLOC_R][SECTOR_MISS] = 0
	L2_cache_stats_breakdown[L2_WR_ALLOC_R][MSHR_HIT] = 0
	L2_cache_stats_breakdown[GLOBAL_ACC_R][TOTAL_ACCESS] = 738867
	L2_cache_stats_breakdown[GLOBAL_ACC_W][TOTAL_ACCESS] = 159
L2_total_cache_reservation_fail_breakdown:
L2_cache_data_port_util = 0.028
L2_cache_fill_port_util = 0.006

icnt_total_pkts_mem_to_simt=739026
icnt_total_pkts_simt_to_mem=739026
LD_mem_lat_dist  0 0 0 0 0 0 0 0 0 0 0 0 0 0 0 0 0 0 0 0 0 0 0 0 0 0 0
ST_mem_lat_dist  0 0 0 0 0 0 0 0 0 0 0 0 0 0 0 0 0 0 0 0 0 0 0 0 0 0 0
----------------------------Interconnect-DETAILS--------------------------------
Req_Network_injected_packets_num = 739026
Req_Network_cycles = 909149
Req_Network_injected_packets_per_cycle =       0.8129 
Req_Network_conflicts_per_cycle =       0.0144
Req_Network_conflicts_per_cycle_util =       0.0264
Req_Bank_Level_Parallism =       1.4878
Req_Network_in_buffer_full_per_cycle =       0.0000
Req_Network_in_buffer_avg_util =       0.0015
Req_Network_out_buffer_full_per_cycle =       0.0000
Req_Network_out_buffer_avg_util =       0.0339

Reply_Network_injected_packets_num = 739026
Reply_Network_cycles = 909149
Reply_Network_injected_packets_per_cycle =        0.8129
Reply_Network_conflicts_per_cycle =        0.3784
Reply_Network_conflicts_per_cycle_util =       0.6898
Reply_Bank_Level_Parallism =       1.4816
Reply_Network_in_buffer_full_per_cycle =       0.0000
Reply_Network_in_buffer_avg_util =       0.0207
Reply_Network_out_buffer_full_per_cycle =       0.0000
Reply_Network_out_buffer_avg_util =       0.0271
----------------------------END-of-Interconnect-DETAILS-------------------------


gpgpu_simulation_time = 0 days, 0 hrs, 21 min, 42 sec (1302 sec)
gpgpu_simulation_rate = 4020 (inst/sec)
gpgpu_simulation_rate = 698 (cycle/sec)
gpgpu_silicon_slowdown = 1955587x
GPGPU-Sim: synchronize waiting for inactive GPU simulation
GPGPU-Sim API: Stream Manager State
GPGPU-Sim: detected inactive GPU simulation thread
	runtime [cuda_base] = 1300168.7400 ms (  0.00 GFLOP/s   0.0 GB/s) [L2 error 0.595560]
Verifying...
	runtime [serial] = 4.027000 ms.
Total element = 1272, || elements whose err <= %0.1 = 0 || elements whose 0.1 < err  <= %1 = 1 || elements whose %1 < err <= %5 = 8 || elements whose %5 < err <= %10 = 4 || elements whose %10 < err = 538 || total err Element = 551
	[max error  0.994614, and ]
POSSIBLE FAILURE
GPGPU-Sim: *** exit detected ***
