

        *** GPGPU-Sim Simulator Version 4.2.0  [build gpgpu-sim_git-commit-5e9d31b8132651796656877ecb58fde27177ba7a_modified_315.0] ***


GPGPU-Sim PTX: simulation mode 0 (can change with PTX_SIM_MODE_FUNC environment variable:
               1=functional simulation only, 0=detailed performance simulator)
GPGPU-Sim PTX: overriding embedded ptx with ptx file (PTX_SIM_USE_PTX_FILE is set)
GPGPU-Sim: Configuration options:

-save_embedded_ptx                      0 # saves ptx files embedded in binary as <n>.ptx
-keep                                   0 # keep intermediate files created by GPGPU-Sim when interfacing with external programs
-gpgpu_ptx_save_converted_ptxplus                    0 # Saved converted ptxplus to a file
-gpgpu_occupancy_sm_number                   75 # The SM number to pass to ptxas when getting register usage for computing GPU occupancy. This parameter is required in the config.
-ptx_opcode_latency_int           4,4,4,4,21 # Opcode latencies for integers <ADD,MAX,MUL,MAD,DIV,SHFL>Default 1,1,19,25,145,32
-ptx_opcode_latency_fp           4,4,4,4,39 # Opcode latencies for single precision floating points <ADD,MAX,MUL,MAD,DIV>Default 1,1,1,1,30
-ptx_opcode_latency_dp      64,64,64,64,330 # Opcode latencies for double precision floating points <ADD,MAX,MUL,MAD,DIV>Default 8,8,8,8,335
-ptx_opcode_latency_sfu                   21 # Opcode latencies for SFU instructionsDefault 8
-ptx_opcode_latency_tesnor                   64 # Opcode latencies for Tensor instructionsDefault 64
-ptx_opcode_initiation_int            2,2,2,2,2 # Opcode initiation intervals for integers <ADD,MAX,MUL,MAD,DIV,SHFL>Default 1,1,4,4,32,4
-ptx_opcode_initiation_fp            2,2,2,2,4 # Opcode initiation intervals for single precision floating points <ADD,MAX,MUL,MAD,DIV>Default 1,1,1,1,5
-ptx_opcode_initiation_dp      64,64,64,64,130 # Opcode initiation intervals for double precision floating points <ADD,MAX,MUL,MAD,DIV>Default 8,8,8,8,130
-ptx_opcode_initiation_sfu                    8 # Opcode initiation intervals for sfu instructionsDefault 8
-ptx_opcode_initiation_tensor                   64 # Opcode initiation intervals for tensor instructionsDefault 64
-cdp_latency         7200,8000,100,12000,1600 # CDP API latency <cudaStreamCreateWithFlags, cudaGetParameterBufferV2_init_perWarp, cudaGetParameterBufferV2_perKernel, cudaLaunchDeviceV2_init_perWarp, cudaLaunchDevicV2_perKernel>Default 7200,8000,100,12000,1600
-network_mode                           2 # Interconnection network mode
-inter_config_file                   mesh # Interconnection network config file
-icnt_in_buffer_limit                  512 # in_buffer_limit
-icnt_out_buffer_limit                  512 # out_buffer_limit
-icnt_subnets                           2 # subnets
-icnt_arbiter_algo                      1 # arbiter_algo
-icnt_verbose                           0 # inct_verbose
-icnt_grant_cycles                      1 # grant_cycles
-gpgpu_ptx_use_cuobjdump                    1 # Use cuobjdump to extract ptx and sass from binaries
-gpgpu_experimental_lib_support                    0 # Try to extract code from cuda libraries [Broken because of unknown cudaGetExportTable]
-checkpoint_option                      0 #  checkpointing flag (0 = no checkpoint)
-checkpoint_kernel                      1 #  checkpointing during execution of which kernel (1- 1st kernel)
-checkpoint_CTA                         0 #  checkpointing after # of CTA (< less than total CTA)
-resume_option                          0 #  resume flag (0 = no resume)
-resume_kernel                          0 #  Resume from which kernel (1= 1st kernel)
-resume_CTA                             0 #  resume from which CTA 
-checkpoint_CTA_t                       0 #  resume from which CTA 
-checkpoint_insn_Y                      0 #  resume from which CTA 
-gpgpu_ptx_convert_to_ptxplus                    0 # Convert SASS (native ISA) to ptxplus and run ptxplus
-gpgpu_ptx_force_max_capability                   75 # Force maximum compute capability
-gpgpu_ptx_inst_debug_to_file                    0 # Dump executed instructions' debug information to file
-gpgpu_ptx_inst_debug_file       inst_debug.txt # Executed instructions' debug output file
-gpgpu_ptx_inst_debug_thread_uid                    1 # Thread UID for executed instructions' debug output
-gpgpu_simd_model                       1 # 1 = post-dominator
-gpgpu_shader_core_pipeline              1024:32 # shader core pipeline config, i.e., {<nthread>:<warpsize>}
-gpgpu_tex_cache:l1  N:4:128:256,L:R:m:N:L,T:512:8,128:2 # per-shader L1 texture cache  (READ-ONLY) config  {<nsets>:<bsize>:<assoc>,<rep>:<wr>:<alloc>:<wr_alloc>,<mshr>:<N>:<merge>,<mq>:<rf>}
-gpgpu_const_cache:l1 N:128:64:8,L:R:f:N:L,S:2:64,4 # per-shader L1 constant memory cache  (READ-ONLY) config  {<nsets>:<bsize>:<assoc>,<rep>:<wr>:<alloc>:<wr_alloc>,<mshr>:<N>:<merge>,<mq>} 
-gpgpu_cache:il1     N:64:128:16,L:R:f:N:L,S:2:48,4 # shader L1 instruction cache config  {<nsets>:<bsize>:<assoc>,<rep>:<wr>:<alloc>:<wr_alloc>,<mshr>:<N>:<merge>,<mq>} 
-gpgpu_cache:dl1     S:4:128:64,L:T:m:L:L,A:256:32,16:0,32 # per-shader L1 data cache config  {<nsets>:<bsize>:<assoc>,<rep>:<wr>:<alloc>:<wr_alloc>,<mshr>:<N>:<merge>,<mq> | none}
-gpgpu_l1_cache_write_ratio                   25 # L1D write ratio
-gpgpu_l1_banks                         4 # The number of L1 cache banks
-gpgpu_l1_banks_byte_interleaving                   32 # l1 banks byte interleaving granularity
-gpgpu_l1_banks_hashing_function                    0 # l1 banks hashing function
-gpgpu_l1_latency                      32 # L1 Hit Latency
-gpgpu_smem_latency                    30 # smem Latency
-gpgpu_cache:dl1PrefL1                 none # per-shader L1 data cache config  {<nsets>:<bsize>:<assoc>,<rep>:<wr>:<alloc>:<wr_alloc>,<mshr>:<N>:<merge>,<mq> | none}
-gpgpu_cache:dl1PrefShared                 none # per-shader L1 data cache config  {<nsets>:<bsize>:<assoc>,<rep>:<wr>:<alloc>:<wr_alloc>,<mshr>:<N>:<merge>,<mq> | none}
-gpgpu_gmem_skip_L1D                    0 # global memory access skip L1D cache (implements -Xptxas -dlcm=cg, default=no skip)
-gpgpu_perfect_mem                      0 # enable perfect memory mode (no cache miss)
-n_regfile_gating_group                    4 # group of lanes that should be read/written together)
-gpgpu_clock_gated_reg_file                    0 # enable clock gated reg file for power calculations
-gpgpu_clock_gated_lanes                    0 # enable clock gated lanes for power calculations
-gpgpu_shader_registers                65536 # Number of registers per shader core. Limits number of concurrent CTAs. (default 8192)
-gpgpu_registers_per_block                65536 # Maximum number of registers per CTA. (default 8192)
-gpgpu_ignore_resources_limitation                    0 # gpgpu_ignore_resources_limitation (default 0)
-gpgpu_shader_cta                      16 # Maximum number of concurrent CTAs in shader (default 32)
-gpgpu_num_cta_barriers                   16 # Maximum number of named barriers per CTA (default 16)
-gpgpu_n_clusters                      30 # number of processing clusters
-gpgpu_n_cores_per_cluster                    1 # number of simd cores per cluster
-gpgpu_n_cluster_ejection_buffer_size                   32 # number of packets in ejection buffer
-gpgpu_n_ldst_response_buffer_size                    2 # number of response packets in ld/st unit ejection buffer
-gpgpu_shmem_per_block                49152 # Size of shared memory per thread block or CTA (default 48kB)
-gpgpu_shmem_size                   65536 # Size of shared memory per shader core (default 16kB)
-gpgpu_shmem_option                 32,64 # Option list of shared memory sizes
-gpgpu_unified_l1d_size                   96 # Size of unified data cache(L1D + shared memory) in KB
-gpgpu_adaptive_cache_config                    1 # adaptive_cache_config
-gpgpu_shmem_sizeDefault                65536 # Size of shared memory per shader core (default 16kB)
-gpgpu_shmem_size_PrefL1                16384 # Size of shared memory per shader core (default 16kB)
-gpgpu_shmem_size_PrefShared                16384 # Size of shared memory per shader core (default 16kB)
-gpgpu_shmem_num_banks                   32 # Number of banks in the shared memory in each shader core (default 16)
-gpgpu_shmem_limited_broadcast                    0 # Limit shared memory to do one broadcast per cycle (default on)
-gpgpu_shmem_warp_parts                    1 # Number of portions a warp is divided into for shared memory bank conflict check 
-gpgpu_mem_unit_ports                    1 # The number of memory transactions allowed per core cycle
-gpgpu_shmem_warp_parts                    1 # Number of portions a warp is divided into for shared memory bank conflict check 
-gpgpu_warpdistro_shader                   -1 # Specify which shader core to collect the warp size distribution from
-gpgpu_warp_issue_shader                    0 # Specify which shader core to collect the warp issue distribution from
-gpgpu_local_mem_map                    1 # Mapping from local memory space address to simulated GPU physical address space (default = enabled)
-gpgpu_num_reg_banks                    8 # Number of register banks (default = 8)
-gpgpu_reg_bank_use_warp_id                    0 # Use warp ID in mapping registers to banks (default = off)
-gpgpu_sub_core_model                    1 # Sub Core Volta/Pascal model (default = off)
-gpgpu_enable_specialized_operand_collector                    0 # enable_specialized_operand_collector
-gpgpu_operand_collector_num_units_sp                    4 # number of collector units (default = 4)
-gpgpu_operand_collector_num_units_dp                    0 # number of collector units (default = 0)
-gpgpu_operand_collector_num_units_sfu                    4 # number of collector units (default = 4)
-gpgpu_operand_collector_num_units_int                    0 # number of collector units (default = 0)
-gpgpu_operand_collector_num_units_tensor_core                    4 # number of collector units (default = 4)
-gpgpu_operand_collector_num_units_mem                    2 # number of collector units (default = 2)
-gpgpu_operand_collector_num_units_gen                    8 # number of collector units (default = 0)
-gpgpu_operand_collector_num_in_ports_sp                    1 # number of collector unit in ports (default = 1)
-gpgpu_operand_collector_num_in_ports_dp                    0 # number of collector unit in ports (default = 0)
-gpgpu_operand_collector_num_in_ports_sfu                    1 # number of collector unit in ports (default = 1)
-gpgpu_operand_collector_num_in_ports_int                    0 # number of collector unit in ports (default = 0)
-gpgpu_operand_collector_num_in_ports_tensor_core                    1 # number of collector unit in ports (default = 1)
-gpgpu_operand_collector_num_in_ports_mem                    1 # number of collector unit in ports (default = 1)
-gpgpu_operand_collector_num_in_ports_gen                    8 # number of collector unit in ports (default = 0)
-gpgpu_operand_collector_num_out_ports_sp                    1 # number of collector unit in ports (default = 1)
-gpgpu_operand_collector_num_out_ports_dp                    0 # number of collector unit in ports (default = 0)
-gpgpu_operand_collector_num_out_ports_sfu                    1 # number of collector unit in ports (default = 1)
-gpgpu_operand_collector_num_out_ports_int                    0 # number of collector unit in ports (default = 0)
-gpgpu_operand_collector_num_out_ports_tensor_core                    1 # number of collector unit in ports (default = 1)
-gpgpu_operand_collector_num_out_ports_mem                    1 # number of collector unit in ports (default = 1)
-gpgpu_operand_collector_num_out_ports_gen                    8 # number of collector unit in ports (default = 0)
-gpgpu_coalesce_arch                   75 # Coalescing arch (GT200 = 13, Fermi = 20)
-gpgpu_num_sched_per_core                    4 # Number of warp schedulers per core
-gpgpu_max_insn_issue_per_warp                    1 # Max number of instructions that can be issued per warp in one cycle by scheduler (either 1 or 2)
-gpgpu_dual_issue_diff_exec_units                    1 # should dual issue use two different execution unit resources (Default = 1)
-gpgpu_simt_core_sim_order                    1 # Select the simulation order of cores in a cluster (0=Fix, 1=Round-Robin)
-gpgpu_pipeline_widths 4,4,4,4,4,4,4,4,4,4,8,4,4 # Pipeline widths ID_OC_SP,ID_OC_DP,ID_OC_INT,ID_OC_SFU,ID_OC_MEM,OC_EX_SP,OC_EX_DP,OC_EX_INT,OC_EX_SFU,OC_EX_MEM,EX_WB,ID_OC_TENSOR_CORE,OC_EX_TENSOR_CORE
-gpgpu_tensor_core_avail                    1 # Tensor Core Available (default=0)
-gpgpu_num_sp_units                     4 # Number of SP units (default=1)
-gpgpu_num_dp_units                     4 # Number of DP units (default=0)
-gpgpu_num_int_units                    4 # Number of INT units (default=0)
-gpgpu_num_sfu_units                    4 # Number of SF units (default=1)
-gpgpu_num_tensor_core_units                    4 # Number of tensor_core units (default=1)
-gpgpu_num_mem_units                    1 # Number if ldst units (default=1) WARNING: not hooked up to anything
-gpgpu_scheduler                      lrr # Scheduler configuration: < lrr | gto | two_level_active > If two_level_active:<num_active_warps>:<inner_prioritization>:<outer_prioritization>For complete list of prioritization values see shader.h enum scheduler_prioritization_typeDefault: gto
-gpgpu_concurrent_kernel_sm                    0 # Support concurrent kernels on a SM (default = disabled)
-gpgpu_perfect_inst_const_cache                    1 # perfect inst and const cache mode, so all inst and const hits in the cache(default = disabled)
-gpgpu_inst_fetch_throughput                    4 # the number of fetched intruction per warp each cycle
-gpgpu_reg_file_port_throughput                    2 # the number ports of the register file
-specialized_unit_1         0,4,4,4,4,BRA # specialized unit config {<enabled>,<num_units>:<latency>:<initiation>,<ID_OC_SPEC>:<OC_EX_SPEC>,<NAME>}
-specialized_unit_2         0,4,4,4,4,BRA # specialized unit config {<enabled>,<num_units>:<latency>:<initiation>,<ID_OC_SPEC>:<OC_EX_SPEC>,<NAME>}
-specialized_unit_3         0,4,4,4,4,BRA # specialized unit config {<enabled>,<num_units>:<latency>:<initiation>,<ID_OC_SPEC>:<OC_EX_SPEC>,<NAME>}
-specialized_unit_4         0,4,4,4,4,BRA # specialized unit config {<enabled>,<num_units>:<latency>:<initiation>,<ID_OC_SPEC>:<OC_EX_SPEC>,<NAME>}
-specialized_unit_5         0,4,4,4,4,BRA # specialized unit config {<enabled>,<num_units>:<latency>:<initiation>,<ID_OC_SPEC>:<OC_EX_SPEC>,<NAME>}
-specialized_unit_6         0,4,4,4,4,BRA # specialized unit config {<enabled>,<num_units>:<latency>:<initiation>,<ID_OC_SPEC>:<OC_EX_SPEC>,<NAME>}
-specialized_unit_7         0,4,4,4,4,BRA # specialized unit config {<enabled>,<num_units>:<latency>:<initiation>,<ID_OC_SPEC>:<OC_EX_SPEC>,<NAME>}
-specialized_unit_8         0,4,4,4,4,BRA # specialized unit config {<enabled>,<num_units>:<latency>:<initiation>,<ID_OC_SPEC>:<OC_EX_SPEC>,<NAME>}
-gpgpu_perf_sim_memcpy                    1 # Fill the L2 cache on memcpy
-gpgpu_simple_dram_model                    0 # simple_dram_model with fixed latency and BW
-gpgpu_dram_scheduler                    1 # 0 = fifo, 1 = FR-FCFS (defaul)
-gpgpu_dram_partition_queues          64:64:64:64 # i2$:$2d:d2$:$2i
-l2_ideal                               0 # Use a ideal L2 cache that always hit
-gpgpu_cache:dl2     S:64:128:16,L:B:m:L:P,A:192:4,32:0,32 # unified banked L2 data cache config  {<nsets>:<bsize>:<assoc>,<rep>:<wr>:<alloc>:<wr_alloc>,<mshr>:<N>:<merge>,<mq>}
-gpgpu_cache:dl2_texture_only                    0 # L2 cache used for texture only
-gpgpu_n_mem                           12 # number of memory modules (e.g. memory controllers) in gpu
-gpgpu_n_sub_partition_per_mchannel                    2 # number of memory subpartition in each memory module
-gpgpu_n_mem_per_ctrlr                    1 # number of memory chips per memory controller
-gpgpu_memlatency_stat                   14 # track and display latency statistics 0x2 enables MC, 0x4 enables queue logs
-gpgpu_frfcfs_dram_sched_queue_size                   64 # 0 = unlimited (default); # entries per chip
-gpgpu_dram_return_queue_size                  192 # 0 = unlimited (default); # entries per chip
-gpgpu_dram_buswidth                    2 # default = 4 bytes (8 bytes per cycle at DDR)
-gpgpu_dram_burst_length                   16 # Burst length of each DRAM request (default = 4 data bus cycle)
-dram_data_command_freq_ratio                    4 # Frequency ratio between DRAM data bus and command bus (default = 2 times, i.e. DDR)
-gpgpu_dram_timing_opt nbk=16:CCD=4:RRD=12:RCD=24:RAS=55:RP=24:RC=78:CL=24:WL=8:CDLR=10:WR=24:nbkgrp=4:CCDL=6:RTPL=4 # DRAM timing parameters = {nbk:tCCD:tRRD:tRCD:tRAS:tRP:tRC:CL:WL:tCDLR:tWR:nbkgrp:tCCDL:tRTPL}
-gpgpu_l2_rop_latency                  194 # ROP queue latency (default 85)
-dram_latency                          96 # DRAM latency (default 30)
-dram_dual_bus_interface                    0 # dual_bus_interface (default = 0) 
-dram_bnk_indexing_policy                    0 # dram_bnk_indexing_policy (0 = normal indexing, 1 = Xoring with the higher bits) (Default = 0)
-dram_bnkgrp_indexing_policy                    1 # dram_bnkgrp_indexing_policy (0 = take higher bits, 1 = take lower bits) (Default = 0)
-dram_seperate_write_queue_enable                    0 # Seperate_Write_Queue_Enable
-dram_write_queue_size             32:28:16 # Write_Queue_Size
-dram_elimnate_rw_turnaround                    0 # elimnate_rw_turnaround i.e set tWTR and tRTW = 0
-icnt_flit_size                        40 # icnt_flit_size
-icnt_flit_size                        40 # icnt_flit_size
-mem_profiler                           0 # memory access runtime profiling (0 = not enabled)
-gpgpu_mem_addr_mapping dramid@8;00000000.00000000.00000000.00000000.0000RRRR.RRRRRRRR.RBBBCCCC.BCCSSSSS # mapping memory address to dram model {dramid@<start bit>;<memory address map>}
-gpgpu_mem_addr_test                    0 # run sweep test to check address mapping for aliased address
-gpgpu_mem_address_mask                    1 # 0 = old addressing mask, 1 = new addressing mask, 2 = new add. mask + flipped bank sel and chip sel bits
-gpgpu_memory_partition_indexing                    0 # 0 = no indexing, 1 = bitwise xoring, 2 = IPoly, 3 = custom indexing
-accelwattch_xml_file accelwattch_sass_sim.xml # AccelWattch XML file
-power_simulation_enabled                    1 # Turn on power simulator (1=On, 0=Off)
-power_per_cycle_dump                    1 # Dump detailed power output each cycle
-hw_perf_file_name            hw_perf.csv # Hardware Performance Statistics file
-hw_perf_bench_name    hw_perf_bench_name # Kernel Name in Hardware Performance Statistics file
-power_simulation_mode                    0 # Switch performance counter input for power simulation (0=Sim, 1=HW, 2=HW-Sim Hybrid)
-dvfs_enabled                           1 # Turn on DVFS for power model
-aggregate_power_stats                    0 # Accumulate power across all kernels
-accelwattch_hybrid_perfsim_L1_RH                    0 # Get L1 Read Hits for Accelwattch-Hybrid from Accel-Sim
-accelwattch_hybrid_perfsim_L1_RM                    0 # Get L1 Read Misses for Accelwattch-Hybrid from Accel-Sim
-accelwattch_hybrid_perfsim_L1_WH                    0 # Get L1 Write Hits for Accelwattch-Hybrid from Accel-Sim
-accelwattch_hybrid_perfsim_L1_WM                    0 # Get L1 Write Misses for Accelwattch-Hybrid from Accel-Sim
-accelwattch_hybrid_perfsim_L2_RH                    0 # Get L2 Read Hits for Accelwattch-Hybrid from Accel-Sim
-accelwattch_hybrid_perfsim_L2_RM                    0 # Get L2 Read Misses for Accelwattch-Hybrid from Accel-Sim
-accelwattch_hybrid_perfsim_L2_WH                    0 # Get L2 Write Hits for Accelwattch-Hybrid from Accel-Sim
-accelwattch_hybrid_perfsim_L2_WM                    0 # Get L2 Write Misses for Accelwattch-Hybrid from Accel-Sim
-accelwattch_hybrid_perfsim_CC_ACC                    0 # Get Constant Cache Acesses for Accelwattch-Hybrid from Accel-Sim
-accelwattch_hybrid_perfsim_SHARED_ACC                    0 # Get Shared Memory Acesses for Accelwattch-Hybrid from Accel-Sim
-accelwattch_hybrid_perfsim_DRAM_RD                    0 # Get DRAM Reads for Accelwattch-Hybrid from Accel-Sim
-accelwattch_hybrid_perfsim_DRAM_WR                    0 # Get DRAM Writes for Accelwattch-Hybrid from Accel-Sim
-accelwattch_hybrid_perfsim_NOC                    0 # Get Interconnect Acesses for Accelwattch-Hybrid from Accel-Sim
-accelwattch_hybrid_perfsim_PIPE_DUTY                    0 # Get Pipeline Duty Cycle Acesses for Accelwattch-Hybrid from Accel-Sim
-accelwattch_hybrid_perfsim_NUM_SM_IDLE                    0 # Get Number of Idle SMs for Accelwattch-Hybrid from Accel-Sim
-accelwattch_hybrid_perfsim_CYCLES                    0 # Get Executed Cycles for Accelwattch-Hybrid from Accel-Sim
-accelwattch_hybrid_perfsim_VOLTAGE                    0 # Get Chip Voltage for Accelwattch-Hybrid from Accel-Sim
-power_trace_enabled                    0 # produce a file for the power trace (1=On, 0=Off)
-power_trace_zlevel                     0 # Compression level of the power trace output log (0=no comp, 9=highest)
-steady_power_levels_enabled                    0 # produce a file for the steady power levels (1=On, 0=Off)
-steady_state_definition                  8:4 # allowed deviation:number of samples
-gpgpu_max_cycle                        0 # terminates gpu simulation early (0 = no limit)
-gpgpu_max_insn                         0 # terminates gpu simulation early (0 = no limit)
-gpgpu_max_cta                          0 # terminates gpu simulation early (0 = no limit)
-gpgpu_max_completed_cta                    0 # terminates gpu simulation early (0 = no limit)
-gpgpu_runtime_stat                  1000 # display runtime statistics such as dram utilization {<freq>:<flag>}
-liveness_message_freq                    1 # Minimum number of seconds between simulation liveness messages (0 = always print)
-gpgpu_compute_capability_major                    7 # Major compute capability version number
-gpgpu_compute_capability_minor                    5 # Minor compute capability version number
-gpgpu_flush_l1_cache                    1 # Flush L1 cache at the end of each kernel call
-gpgpu_flush_l2_cache                    0 # Flush L2 cache at the end of each kernel call
-gpgpu_deadlock_detect                    1 # Stop the simulation at deadlock (1=on (default), 0=off)
-gpgpu_ptx_instruction_classification                    0 # if enabled will classify ptx instruction types per kernel (Max 255 kernels now)
-gpgpu_ptx_sim_mode                     0 # Select between Performance (default) or Functional simulation (1)
-gpgpu_clock_domains 1365:1365:1365:3500.5 # Clock Domain Frequencies in MhZ {<Core Clock>:<ICNT Clock>:<L2 Clock>:<DRAM Clock>}
-gpgpu_max_concurrent_kernel                  128 # maximum kernels that can run concurrently on GPU, set this value according to max resident grids for your compute capability
-gpgpu_cflog_interval                    0 # Interval between each snapshot in control flow logger
-visualizer_enabled                     0 # Turn on visualizer output (1=On, 0=Off)
-visualizer_outputfile                 NULL # Specifies the output log file for visualizer
-visualizer_zlevel                      6 # Compression level of the visualizer output log (0=no comp, 9=highest)
-gpgpu_stack_size_limit                 1024 # GPU thread stack size
-gpgpu_heap_size_limit              8388608 # GPU malloc heap size 
-gpgpu_runtime_sync_depth_limit                    2 # GPU device runtime synchronize depth
-gpgpu_runtime_pending_launch_count_limit                 2048 # GPU device runtime pending launch count
-trace_enabled                          0 # Turn on traces
-trace_components                    none # comma seperated list of traces to enable. Complete list found in trace_streams.tup. Default none
-trace_sampling_core                    0 # The core which is printed using CORE_DPRINTF. Default 0
-trace_sampling_memory_partition                   -1 # The memory partition which is printed using MEMPART_DPRINTF. Default -1 (i.e. all)
-enable_ptx_file_line_stats                    1 # Turn on PTX source line statistic profiling. (1 = On)
-ptx_line_stats_filename gpgpu_inst_stats.txt # Output file for PTX source line statistics.
-gpgpu_kernel_launch_latency                 5000 # Kernel launch latency in cycles. Default: 0
-gpgpu_cdp_enabled                      0 # Turn on CDP
-gpgpu_TB_launch_latency                    0 # thread block launch latency in cycles. Default: 0
-mem_runtime_stat                     100 # memory access runtime profiling samplingac1eea08e21c65ec61d1c5ea6f31ebd3  /home/pars/Documents/sim_4/bc_topo_lb
Extracting PTX file and ptxas options    1: bc_topo_lb.1.sm_75.ptx -arch=sm_75
 freq
-L1D_metrics                            0 # memory access runtime profiling for L1 data cache
-IPC_per_prof_interval                    0 # IPC per profiling interval
-instruction_monitor                    0 # Instruction monitor
-noncoal_metrics                        0 # memory access runtime profiling for shared memory
-L2_metrics                             0 # memory access runtime profiling for L2 cache
-DRAM_metrics                           0 # memory access runtime profiling for DRAM
-Shmem_metrics                          0 # memory access runtime profiling for noncoalesced accesses
-store_enable                           0 # Enable stores for memory profiling
-accumulate_stats                       0 # Accumulate stats for the memory profiling
-dump_enable                            0 # Process dump enable flag - (def = 0)
-flush_l1d                              0 # Enable flushings for L1D caches - (default = 0)
-flush_l2                               0 # Enable flushings for L2 caches - (default = 0)
-flush_dram                             0 # Enable flushings for DRAM - (default = 0)
-flush_noncoalesceds                    0 # Enable flushings for non coalesced accesses - (default = 0)
-flush_shmems                           0 # Enable flushings for shared memory accesses - (default = 0)
-error_percentage          21474836480001 # Error percentage for the flushes - (default = 1)
-dump_sampling_cycle       21474836485000 # Dump sampling frequency - (default = 5000)
-flush_acc_type                         2 # Flush access types
-monitor_sampling_cycle                 5000 # Monitoring sampling cycle - (default = 5000)
DRAM Timing Options:
nbk                                    16 # number of banks
CCD                                     4 # column to column delay
RRD                                    12 # minimal delay between activation of rows in different banks
RCD                                    24 # row to column delay
RAS                                    55 # time needed to activate row
RP                                     24 # time needed to precharge (deactivate) row
RC                                     78 # row cycle time
CDLR                                   10 # switching from write to read (changes tWTR)
WR                                     24 # last data-in to row precharge
CL                                     24 # CAS latency
WL                                      8 # Write latency
nbkgrp                                  4 # number of bank groups
CCDL                                    6 # column to column delay between accesses to different bank groups
RTPL                                    4 # read to precharge delay between accesses to different bank groups
Total number of memory sub partition = 24
addr_dec_mask[CHIP]  = 0000000000000000 	high:64 low:0
addr_dec_mask[BK]    = 0000000000007080 	high:15 low:7
addr_dec_mask[ROW]   = 000000000fff8000 	high:28 low:15
addr_dec_mask[COL]   = 0000000000000f7f 	high:12 low:0
addr_dec_mask[BURST] = 000000000000001f 	high:5 low:0
sub_partition_id_mask = 0000000000000080
GPGPU-Sim uArch: clock freqs: 1365000000.000000:1365000000.000000:1365000000.000000:3500500000.000000
GPGPU-Sim uArch: clock periods: 0.00000000073260073260:0.00000000073260073260:0.00000000073260073260:0.00000000028567347522
*** Initializing Memory Statistics ***
GPGPU-Sim uArch: performance model initialization complete.
self exe links to: /home/pars/Documents/sim_4/bc_topo_lb
self exe links to: /home/pars/Documents/sim_4/bc_topo_lb
11.0
GPGPU-Sim PTX: __cudaRegisterFatBinary, fat_cubin_handle = 1, filename=default
self exe links to: /home/pars/Documents/sim_4/bc_topo_lb
Running md5sum using "md5sum /home/pars/Documents/sim_4/bc_topo_lb "
self exe links to: /home/pars/Documents/sim_4/bc_topo_lb
Extracting specific PTX file named bc_topo_lb.1.sm_75.ptx 
GPGPU-Sim PTX: __cudaRegisterFunction _ZN6thrust8cuda_cub4core13_kernel_agentINS0_14__parallel_for16ParallelForAgentINS0_11__transform17unary_transform_fIPNS_5tupleIflNS_9null_typeES8_S8_S8_S8_S8_S8_S8_EESA_NS5_14no_stencil_tagENS_8identityIS9_EENS5_21always_true_predicateEEElEESF_lEEvT0_T1_ : hostFun 0x0x55d4d02f4d1f, fat_cubin_handle = 1
GPGPU-Sim PTX: Parsing bc_topo_lb.1.sm_75.ptx
GPGPU-Sim PTX: allocating global region for "_ZN41_INTERNAL_1f8a2d2c_10_topo_lb_cu_297024296thrust6system6detail10sequential3seqE" from 0x100 to 0x101 (global memory space)
GPGPU-Sim PTX: allocating global region for "_ZN41_INTERNAL_1f8a2d2c_10_topo_lb_cu_297024296thrust6system3cpp3parE" from 0x101 to 0x102 (global memory space)
GPGPU-Sim PTX: allocating global region for "_ZN41_INTERNAL_1f8a2d2c_10_topo_lb_cu_297024296thrust8cuda_cub3parE" from 0x102 to 0x103 (global memory space)
GPGPU-Sim PTX: allocating global region for "_ZN41_INTERNAL_1f8a2d2c_10_topo_lb_cu_297024296thrust12placeholders2_1E" from 0x103 to 0x104 (global memory space)
GPGPU-Sim PTX: allocating global region for "_ZN41_INTERNAL_1f8a2d2c_10_topo_lb_cu_297024296thrust12placeholders2_2E" from 0x104 to 0x105 (global memory space)
GPGPU-Sim PTX: allocating global region for "_ZN41_INTERNAL_1f8a2d2c_10_topo_lb_cu_297024296thrust12placeholders2_3E" from 0x105 to 0x106 (global memory space)
GPGPU-Sim PTX: allocating global region for "_ZN41_INTERNAL_1f8a2d2c_10_topo_lb_cu_297024296thrust12placeholders2_4E" from 0x106 to 0x107 (global memory space)
GPGPU-Sim PTX: allocating global region for "_ZN41_INTERNAL_1f8a2d2c_10_topo_lb_cu_297024296thrust12placeholders2_5E" from 0x107 to 0x108 (global memory space)
GPGPU-Sim PTX: allocating global region for "_ZN41_INTERNAL_1f8a2d2c_10_topo_lb_cu_297024296thrust12placeholders2_6E" from 0x108 to 0x109 (global memory space)
GPGPU-Sim PTX: allocating global region for "_ZN41_INTERNAL_1f8a2d2c_10_topo_lb_cu_297024296thrust12placeholders2_7E" from 0x109 to 0x10a (global memory space)
GPGPU-Sim PTX: allocating global region for "_ZN41_INTERNAL_1f8a2d2c_10_topo_lb_cu_297024296thrust12placeholders2_8E" from 0x10a to 0x10b (global memory space)
GPGPU-Sim PTX: allocating global region for "_ZN41_INTERNAL_1f8a2d2c_10_topo_lb_cu_297024296thrust12placeholders2_9E" from 0x10b to 0x10c (global memory space)
GPGPU-Sim PTX: allocating global region for "_ZN41_INTERNAL_1f8a2d2c_10_topo_lb_cu_297024296thrust12placeholders3_10E" from 0x10c to 0x10d (global memory space)
GPGPU-Sim PTX: allocating global region for "_ZN41_INTERNAL_1f8a2d2c_10_topo_lb_cu_297024296thrust3seqE" from 0x10d to 0x10e (global memory space)
GPGPU-Sim PTX: allocating global region for "_ZN41_INTERNAL_1f8a2d2c_10_topo_lb_cu_297024296thrust6deviceE" from 0x10e to 0x10f (global memory space)
GPGPU-Sim PTX: allocating shared region for "_ZN6thrust8cuda_cub4core5shmemE" from 0x0 to 0x0 (shared memory space)
GPGPU-Sim PTX: instruction assembly for function '_Z10initializeiiPfPiS0_S_PbS1_'...   done.
GPGPU-Sim PTX: Warning -- ignoring pragma 'nounroll'
GPGPU-Sim PTX: instruction assembly for function '_Z12forward_baseiPKmPKiPiS3_iPbS4_'...   done.
GPGPU-Sim PTX: allocating shared region for "_ZZ10forward_lbiPKmPKiPiS3_iPbS4_E12temp_storage" from 0x0 to 0x4a0 (shared memory space)
GPGPU-Sim PTX: allocating shared region for "_ZZ10forward_lbiPKmPKiPiS3_iPbS4_E14gather_offsets" from 0x500 to 0x900 (shared memory space)
GPGPU-Sim PTX: allocating shared region for "_ZZ10forward_lbiPKmPKiPiS3_iPbS4_E6srcsrc" from 0x900 to 0xd00 (shared memory space)
GPGPU-Sim PTX: allocating shared region for "_ZZ10forward_lbiPKmPKiPiS3_iPbS4_E6values" from 0xd00 to 0x1100 (shared memory space)
GPGPU-Sim PTX: instruction assembly for function '_Z10forward_lbiPKmPKiPiS3_iPbS4_'...   done.
GPGPU-Sim PTX: Warning -- ignoring pragma 'nounroll'
GPGPU-Sim PTX: instruction assembly for function '_Z12reverse_baseiPKmPKiiPiPfS3_S3_iS4_'...   done.
GPGPU-Sim PTX: allocating shared region for "_ZZ18reverse_expand_ctaiPKmPKiiPiPfS2_S3_iS4_E12temp_storage" from 0x0 to 0x2c (shared memory space)
GPGPU-Sim PTX: allocating shared region for "_ZZ18reverse_expand_ctaiPKmPKiiPiPfS2_S3_iS4_E5owner" from 0x2c to 0x30 (shared memory space)
GPGPU-Sim PTX: allocating shared region for "_ZZ18reverse_expand_ctaiPKmPKiiPiPfS2_S3_iS4_E6sh_src" from 0x30 to 0x34 (shared memory space)
GPGPU-Sim PTX: allocating shared region for "_ZZ10reverse_lbiPKmPKiiPiPfS2_S3_iS4_E12temp_storage" from 0x80 to 0x520 (shared memory space)
GPGPU-Sim PTX: allocating shared region for "_ZZ10reverse_lbiPKmPKiiPiPfS2_S3_iS4_E14gather_offsets" from 0x580 to 0x980 (shared memory space)
GPGPU-Sim PTX: allocating shared region for "_ZZ10reverse_lbiPKmPKiiPiPfS2_S3_iS4_E3idx" from 0x980 to 0xd80 (shared memory space)
GPGPU-Sim PTX: allocating shared region for "_ZZ10reverse_lbiPKmPKiiPiPfS2_S3_iS4_E9sh_counts" from 0xd80 to 0x1180 (shared memory space)
GPGPU-Sim PTX: allocating shared region for "_ZZ10reverse_lbiPKmPKiiPiPfS2_S3_iS4_E9sh_deltas" from 0x1180 to 0x1580 (shared memory space)
GPGPU-Sim PTX: instruction assembly for function '_Z10reverse_lbiPKmPKiiPiPfS2_S3_iS4_'...   done.
GPGPU-Sim PTX: allocating shared region for "_ZZ12reverse_warpiPKmPKiiPiPfS3_S3_iS4_E4ptrs" from 0x0 to 0x40 (shared memory space)
GPGPU-Sim PTX: allocating shared region for "_ZZ12reverse_warpiPKmPKiiPiPfS3_S3_iS4_E5sdata" from 0x80 to 0x4c0 (shared memory space)
GPGPU-Sim PTX: instruction assembly for function '_Z12reverse_warpiPKmPKiiPiPfS3_S3_iS4_'...   done.
GPGPU-Sim PTX: instruction assembly for function '_Z6updateiPbPiS0_S0_iS_'...   done.
GPGPU-Sim PTX: instruction assembly for function '_Z12bc_normalizeiPff'...   done.
GPGPU-Sim PTX: instruction assembly for function '_ZN3cub11EmptyKernelIvEEvv'...   done.
GPGPU-Sim PTX: Warning -- ignoring pragma 'nounroll'
GPGPU-Sim PTX: Warning -- ignoring pragma 'nounroll'
GPGPU-Sim PTX: instruction assembly for function '_ZN6thrust8cuda_cub4core13_kernel_agentINS0_8__reduce11ReduceAgentINS_12zip_iteratorINS_5tupleIPfNS0_19counting_iterator_tIlEENS_9null_typeESA_SA_SA_SA_SA_SA_SA_EEEEPNS6_IflSA_SA_SA_SA_SA_SA_SA_SA_EESD_iNS0_9__extrema9arg_max_fIflNS_4lessIfEEEEEESC_SE_iSJ_EEvT0_T1_T2_T3_'...   done.
GPGPU-Sim PTX: Warning -- ignoring pragma 'nounroll'
GPGPU-Sim PTX: Warning -- ignoring pragma 'nounroll'
GPGPU-Sim PTX: instruction assembly for function '_ZN6thrust8cuda_cub4core13_kernel_agentINS0_8__reduce11ReduceAgentINS_12zip_iteratorINS_5tupleIPfNS0_19counting_iterator_tIlEENS_9null_typeESA_SA_SA_SA_SA_SA_SA_EEEEPNS6_IflSA_SA_SA_SA_SA_SA_SA_SA_EESD_iNS0_9__extrema9arg_max_fIflNS_4lessIfEEEEEESC_SE_iN3cub13GridEvenShareIiEENSL_9GridQueueIjEESJ_EEvT0_T1_T2_T3_T4_T5_'...   done.
GPGPU-Sim PTX: instruction assembly for function '_ZN6thrust8cuda_cub4core13_kernel_agentINS0_8__reduce10DrainAgentIiEEN3cub9GridQueueIjEEiEEvT0_T1_'...   done.
GPGPU-Sim PTX: Warning -- ignoring pragma 'nounroll'
GPGPU-Sim PTX: Warning -- ignoring pragma 'nounroll'
GPGPU-Sim PTX: instruction assembly for function '_ZN6thrust8cuda_cub4core13_kernel_agentINS0_8__reduce11ReduceAgentIPNS_5tupleIflNS_9null_typeES6_S6_S6_S6_S6_S6_S6_EES8_S7_iNS0_9__extrema9arg_max_fIflNS_4lessIfEEEEEES8_S8_iSD_EEvT0_T1_T2_T3_'...   done.
GPGPU-Sim PTX: Warning -- ignoring pragma 'nounroll'
GPGPU-Sim PTX: Warning -- ignoring pragma 'nounroll'
GPGPU-Sim PTX: instruction assembly for function '_ZN6thrust8cuda_cub4core13_kernel_agentINS0_8__reduce11ReduceAgentINS_12zip_iteratorINS_5tupleIPfNS0_19counting_iterator_tIlEENS_9null_typeESA_SA_SA_SA_SA_SA_SA_EEEEPNS6_IflSA_SA_SA_SA_SA_SA_SA_SA_EESD_lNS0_9__extrema9arg_max_fIflNS_4lessIfEEEEEESC_SE_lSJ_EEvT0_T1_T2_T3_'...   done.
GPGPU-Sim PTX: Warning -- ignoring pragma 'nounroll'
GPGPU-Sim PTX: Warning -- ignoring pragma 'nounroll'
GPGPU-Sim PTX: instruction assembly for function '_ZN6thrust8cuda_cub4core13_kernel_agentINS0_8__reduce11ReduceAgentINS_12zip_iteratorINS_5tupleIPfNS0_19counting_iterator_tIlEENS_9null_typeESA_SA_SA_SA_SA_SA_SA_EEEEPNS6_IflSA_SA_SA_SA_SA_SA_SA_SA_EESD_lNS0_9__extrema9arg_max_fIflNS_4lessIfEEEEEESC_SE_lN3cub13GridEvenShareIlEENSL_9GridQueueIyEESJ_EEvT0_T1_T2_T3_T4_T5_'...   done.
GPGPU-Sim PTX: instruction assembly for function '_ZN6thrust8cuda_cub4core13_kernel_agentINS0_8__reduce10DrainAgentIlEEN3cub9GridQueueIyEElEEvT0_T1_'...   done.
GPGPU-Sim PTX: Warning -- ignoring pragma 'nounroll'
GPGPU-Sim PTX: Warning -- ignoring pragma 'nounroll'
GPGPU-Sim PTX: instruction assembly for function '_ZN6thrust8cuda_cub4core13_kernel_agentINS0_8__reduce11ReduceAgentIPNS_5tupleIflNS_9null_typeES6_S6_S6_S6_S6_S6_S6_EES8_S7_lNS0_9__extrema9arg_max_fIflNS_4lessIfEEEEEES8_S8_iSD_EEvT0_T1_T2_T3_'...   done.
GPGPU-Sim PTX: instruction assembly for function '_ZN6thrust8cuda_cub4core13_kernel_agentINS0_14__parallel_for16ParallelForAgentINS0_10for_each_fINS_7pointerINS_5tupleIflNS_9null_typeES8_S8_S8_S8_S8_S8_S8_EENS0_5par_tENS_11use_defaultESB_EENS_6detail16wrapped_functionINSD_23allocator_traits_detail5gozerEvEEEElEESI_lEEvT0_T1_'...   done.
GPGPU-Sim PTX: instruction assembly for function '_ZN6thrust8cuda_cub4core13_kernel_agentINS0_14__parallel_for16ParallelForAgentINS0_20__uninitialized_copy7functorIPNS_5tupleIflNS_9null_typeES8_S8_S8_S8_S8_S8_S8_EENS_7pointerIS9_NS0_5par_tENS_11use_defaultESD_EEEElEESF_lEEvT0_T1_'...   done.
GPGPU-Sim PTX: instruction assembly for function '_ZN6thrust8cuda_cub4core13_kernel_agentINS0_14__parallel_for16ParallelForAgentINS0_11__transform17unary_transform_fIPNS_5tupleIflNS_9null_typeES8_S8_S8_S8_S8_S8_S8_EESA_NS5_14no_stencil_tagENS_8identityIS9_EENS5_21always_true_predicateEEElEESF_lEEvT0_T1_'...   done.
GPGPU-Sim PTX: finished parsing EMBEDDED .ptx file bc_topo_lb.1.sm_75.ptx
GPGPU-Sim PTX: loading globals with explicit initializers... 
GPGPU-Sim PTX: finished loading globals (0 bytes total).
GPGPU-Sim PTX: loading constants with explicit initializers...  done.
GPGPU-Sim PTX: Loading PTXInfo from bc_topo_lb.1.sm_75.ptx
GPGPU-Sim PTX: Kernel '_ZN6thrust8cuda_cub4core13_kernel_agentINS0_14__parallel_for16ParallelForAgentINS0_11__transform17unary_transform_fIPNS_5tupleIflNS_9null_typeES8_S8_S8_S8_S8_S8_S8_EESA_NS5_14no_stencil_tagENS_8identityIS9_EENS5_21always_true_predicateEEElEESF_lEEvT0_T1_' : regs=14, lmem=0, smem=0, cmem=384
GPGPU-Sim PTX: Kernel '_ZN6thrust8cuda_cub4core13_kernel_agentINS0_14__parallel_for16ParallelForAgentINS0_20__uninitialized_copy7functorIPNS_5tupleIflNS_9null_typeES8_S8_S8_S8_S8_S8_S8_EENS_7pointerIS9_NS0_5par_tENS_11use_defaultESD_EEEElEESF_lEEvT0_T1_' : regs=16, lmem=0, smem=0, cmem=376
GPGPU-Sim PTX: Kernel '_ZN6thrust8cuda_cub4core13_kernel_agentINS0_14__parallel_for16ParallelForAgentINS0_10for_each_fINS_7pointerINS_5tupleIflNS_9null_typeES8_S8_S8_S8_S8_S8_S8_EENS0_5par_tENS_11use_defaultESB_EENS_6detail16wrapped_functionINSD_23allocator_traits_detail5gozerEvEEEElEESI_lEEvT0_T1_' : regs=4, lmem=0, smem=0, cmem=376
GPGPU-Sim PTX: Kernel '_ZN6thrust8cuda_cub4core13_kernel_agentINS0_8__reduce11ReduceAgentIPNS_5tupleIflNS_9null_typeES6_S6_S6_S6_S6_S6_S6_EES8_S7_lNS0_9__extrema9arg_max_fIflNS_4lessIfEEEEEES8_S8_iSD_EEvT0_T1_T2_T3_' : regs=34, lmem=0, smem=0, cmem=373
GPGPU-Sim PTX: Kernel '_ZN6thrust8cuda_cub4core13_kernel_agentINS0_8__reduce10DrainAgentIlEEN3cub9GridQueueIyEElEEvT0_T1_' : regs=6, lmem=0, smem=0, cmem=368
GPGPU-Sim PTX: Kernel '_ZN6thrust8cuda_cub4core13_kernel_agentINS0_8__reduce11ReduceAgentINS_12zip_iteratorINS_5tupleIPfNS0_19counting_iterator_tIlEENS_9null_typeESA_SA_SA_SA_SA_SA_SA_EEEEPNS6_IflSA_SA_SA_SA_SA_SA_SA_SA_EESD_lNS0_9__extrema9arg_max_fIflNS_4lessIfEEEEEESC_SE_lN3cub13GridEvenShareIlEENSL_9GridQueueIyEESJ_EEvT0_T1_T2_T3_T4_T5_' : regs=32, lmem=0, smem=0, cmem=465
GPGPU-Sim PTX: Kernel '_ZN6thrust8cuda_cub4core13_kernel_agentINS0_8__reduce11ReduceAgentINS_12zip_iteratorINS_5tupleIPfNS0_19counting_iterator_tIlEENS_9null_typeESA_SA_SA_SA_SA_SA_SA_EEEEPNS6_IflSA_SA_SA_SA_SA_SA_SA_SA_EESD_lNS0_9__extrema9arg_max_fIflNS_4lessIfEEEEEESC_SE_lSJ_EEvT0_T1_T2_T3_' : regs=32, lmem=0, smem=0, cmem=385
GPGPU-Sim PTX: Kernel '_ZN6thrust8cuda_cub4core13_kernel_agentINS0_8__reduce11ReduceAgentIPNS_5tupleIflNS_9null_typeES6_S6_S6_S6_S6_S6_S6_EES8_S7_iNS0_9__extrema9arg_max_fIflNS_4lessIfEEEEEES8_S8_iSD_EEvT0_T1_T2_T3_' : regs=34, lmem=0, smem=0, cmem=373
GPGPU-Sim PTX: Kernel '_ZN6thrust8cuda_cub4core13_kernel_agentINS0_8__reduce10DrainAgentIiEEN3cub9GridQueueIjEEiEEvT0_T1_' : regs=4, lmem=0, smem=0, cmem=364
GPGPU-Sim PTX: Kernel '_ZN6thrust8cuda_cub4core13_kernel_agentINS0_8__reduce11ReduceAgentINS_12zip_iteratorINS_5tupleIPfNS0_19counting_iterator_tIlEENS_9null_typeESA_SA_SA_SA_SA_SA_SA_EEEEPNS6_IflSA_SA_SA_SA_SA_SA_SA_SA_EESD_iNS0_9__extrema9arg_max_fIflNS_4lessIfEEEEEESC_SE_iN3cub13GridEvenShareIiEENSL_9GridQueueIjEESJ_EEvT0_T1_T2_T3_T4_T5_' : regs=32, lmem=0, smem=0, cmem=433
GPGPU-Sim PTX: Kernel '_ZN6thrust8cuda_cub4core13_kernel_agentINS0_8__reduce11ReduceAgentINS_12zip_iteratorINS_5tupleIPfNS0_19counting_iterator_tIlEENS_9null_typeESA_SA_SA_SA_SA_SA_SA_EEEEPNS6_IflSA_SA_SA_SA_SA_SA_SA_SA_EESD_iNS0_9__extrema9arg_max_fIflNS_4lessIfEEEEEESC_SE_iSJ_EEvT0_T1_T2_T3_' : regs=32, lmem=0, smem=0, cmem=381
GPGPU-Sim PTX: Kernel '_ZN3cub11EmptyKernelIvEEvv' : regs=4, lmem=0, smem=0, cmem=352
GPGPU-Sim PTX: Kernel '_Z12bc_normalizeiPff' : regs=16, lmem=0, smem=0, cmem=372
GPGPU-Sim PTX: Kernel '_Z6updateiPbPiS0_S0_iS_' : regs=14, lmem=0, smem=0, cmem=408
GPGPU-Sim PTX: Kernel '_Z12reverse_warpiPKmPKiiPiPfS3_S3_iS4_' : regs=31, lmem=0, smem=1152, cmem=432
GPGPU-Sim PTX: Kernel '_Z10reverse_lbiPKmPKiiPiPfS2_S3_iS4_' : regs=28, lmem=0, smem=5344, cmem=432
GPGPU-Sim PTX: Kernel '_Z12reverse_baseiPKmPKiiPiPfS3_S3_iS4_' : regs=27, lmem=0, smem=0, cmem=432
GPGPU-Sim PTX: Kernel '_Z10forward_lbiPKmPKiPiS3_iPbS4_' : regs=26, lmem=0, smem=4256, cmem=416
GPGPU-Sim PTX: Kernel '_Z12forward_baseiPKmPKiPiS3_iPbS4_' : regs=18, lmem=0, smem=0, cmem=416
GPGPU-Sim PTX: Kernel '_Z10initializeiiPfPiS0_S_PbS1_' : regs=18, lmem=0, smem=0, cmem=408
GPGPU-Sim PTX: __cudaRegisterFunction _ZN6thrust8cuda_cub4core13_kernel_agentINS0_14__parallel_for16ParallelForAgentINS0_20__uninitialized_copy7functorIPNS_5tupleIflNS_9null_typeES8_S8_S8_S8_S8_S8_S8_EENS_7pointerIS9_NS0_5par_tENS_11use_defaultESD_EEEElEESF_lEEvT0_T1_ : hostFun 0x0x55d4d02f4ce3, fat_cubin_handle = 1
GPGPU-Sim PTX: __cudaRegisterFunction _ZN6thrust8cuda_cub4core13_kernel_agentINS0_14__parallel_for16ParallelForAgentINS0_10for_each_fINS_7pointerINS_5tupleIflNS_9null_typeES8_S8_S8_S8_S8_S8_S8_EENS0_5par_tENS_11use_defaultESB_EENS_6detail16wrapped_functionINSD_23allocator_traits_detail5gozerEvEEEElEESI_lEEvT0_T1_ : hostFun 0x0x55d4d02f4cb6, fat_cubin_handle = 1
GPGPU-Sim PTX: __cudaRegisterFunction _ZN6thrust8cuda_cub4core13_kernel_agentINS0_8__reduce11ReduceAgentIPNS_5tupleIflNS_9null_typeES6_S6_S6_S6_S6_S6_S6_EES8_S7_lNS0_9__extrema9arg_max_fIflNS_4lessIfEEEEEES8_S8_iSD_EEvT0_T1_T2_T3_ : hostFun 0x0x55d4d02f4c88, fat_cubin_handle = 1
GPGPU-Sim PTX: __cudaRegisterFunction _ZN6thrust8cuda_cub4core13_kernel_agentINS0_8__reduce10DrainAgentIlEEN3cub9GridQueueIyEElEEvT0_T1_ : hostFun 0x0x55d4d02f4c62, fat_cubin_handle = 1
GPGPU-Sim PTX: __cudaRegisterFunction _ZN6thrust8cuda_cub4core13_kernel_agentINS0_8__reduce11ReduceAgentINS_12zip_iteratorINS_5tupleIPfNS0_19counting_iterator_tIlEENS_9null_typeESA_SA_SA_SA_SA_SA_SA_EEEEPNS6_IflSA_SA_SA_SA_SA_SA_SA_SA_EESD_lNS0_9__extrema9arg_max_fIflNS_4lessIfEEEEEESC_SE_lN3cub13GridEvenShareIlEENSL_9GridQueueIyEESJ_EEvT0_T1_T2_T3_T4_T5_ : hostFun 0x0x55d4d02f4c0e, fat_cubin_handle = 1
GPGPU-Sim PTX: __cudaRegisterFunction _ZN6thrust8cuda_cub4core13_kernel_agentINS0_8__reduce11ReduceAgentINS_12zip_iteratorINS_5tupleIPfNS0_19counting_iterator_tIlEENS_9null_typeESA_SA_SA_SA_SA_SA_SA_EEEEPNS6_IflSA_SA_SA_SA_SA_SA_SA_SA_EESD_lNS0_9__extrema9arg_max_fIflNS_4lessIfEEEEEESC_SE_lSJ_EEvT0_T1_T2_T3_ : hostFun 0x0x55d4d02f4bcc, fat_cubin_handle = 1
GPGPU-Sim PTX: __cudaRegisterFunction _ZN6thrust8cuda_cub4core13_kernel_agentINS0_8__reduce11ReduceAgentIPNS_5tupleIflNS_9null_typeES6_S6_S6_S6_S6_S6_S6_EES8_S7_iNS0_9__extrema9arg_max_fIflNS_4lessIfEEEEEES8_S8_iSD_EEvT0_T1_T2_T3_ : hostFun 0x0x55d4d02f4b9e, fat_cubin_handle = 1
GPGPU-Sim PTX: __cudaRegisterFunction _ZN6thrust8cuda_cub4core13_kernel_agentINS0_8__reduce10DrainAgentIiEEN3cub9GridQueueIjEEiEEvT0_T1_ : hostFun 0x0x55d4d02f4b79, fat_cubin_handle = 1
GPGPU-Sim PTX: __cudaRegisterFunction _ZN6thrust8cuda_cub4core13_kernel_agentINS0_8__reduce11ReduceAgentINS_12zip_iteratorINS_5tupleIPfNS0_19counting_iterator_tIlEENS_9null_typeESA_SA_SA_SA_SA_SA_SA_EEEEPNS6_IflSA_SA_SA_SA_SA_SA_SA_SA_EESD_iNS0_9__extrema9arg_max_fIflNS_4lessIfEEEEEESC_SE_iN3cub13GridEvenShareIiEENSL_9GridQueueIjEESJ_EEvT0_T1_T2_T3_T4_T5_ : hostFun 0x0x55d4d02f4b26, fat_cubin_handle = 1
GPGPU-Sim PTX: __cudaRegisterFunction _ZN6thrust8cuda_cub4core13_kernel_agentINS0_8__reduce11ReduceAgentINS_12zip_iteratorINS_5tupleIPfNS0_19counting_iterator_tIlEENS_9null_typeESA_SA_SA_SA_SA_SA_SA_EEEEPNS6_IflSA_SA_SA_SA_SA_SA_SA_SA_EESD_iNS0_9__extrema9arg_max_fIflNS_4lessIfEEEEEESC_SE_iSJ_EEvT0_T1_T2_T3_ : hostFun 0x0x55d4d02f4ae5, fat_cubin_handle = 1
GPGPU-Sim PTX: __cudaRegisterFunction _ZN3cub11EmptyKernelIvEEvv : hostFun 0x0x55d4d02f47f0, fat_cubin_handle = 1
GPGPU-Sim PTX: __cudaRegisterFunction _Z12bc_normalizeiPff : hostFun 0x0x55d4d02f0d82, fat_cubin_handle = 1
GPGPU-Sim PTX: __cudaRegisterFunction _Z6updateiPbPiS0_S0_iS_ : hostFun 0x0x55d4d02f0bda, fat_cubin_handle = 1
GPGPU-Sim PTX: __cudaRegisterFunction _Z12reverse_warpiPKmPKiiPiPfS3_S3_iS4_ : hostFun 0x0x55d4d02f09be, fat_cubin_handle = 1
GPGPU-Sim PTX: __cudaRegisterFunction _Z10reverse_lbiPKmPKiiPiPfS2_S3_iS4_ : hostFun 0x0x55d4d02f06f1, fat_cubin_handle = 1
GPGPU-Sim PTX: __cudaRegisterFunction _Z12reverse_baseiPKmPKiiPiPfS3_S3_iS4_ : hostFun 0x0x55d4d02f0424, fat_cubin_handle = 1
GPGPU-Sim PTX: __cudaRegisterFunction _Z10forward_lbiPKmPKiPiS3_iPbS4_ : hostFun 0x0x55d4d02f0156, fat_cubin_handle = 1
GPGPU-Sim PTX: __cudaRegisterFunction _Z12forward_baseiPKmPKiPiS3_iPbS4_ : hostFun 0x0x55d4d02eff07, fat_cubin_handle = 1
GPGPU-Sim PTX: __cudaRegisterFunction _Z10initializeiiPfPiS0_S_PbS1_ : hostFun 0x0x55d4d02efcba, fat_cubin_handle = 1
GPGPU-Sim PTX: __cudaRegisterVar: hostVar = 0x55d4d030a7c1; deviceAddress = _ZN41_INTERNAL_1f8a2d2c_10_topo_lb_cu_297024296thrust6system6detail10sequential3seqE; deviceName = _ZN41_INTERNAL_1f8a2d2c_10_topo_lb_cu_297024296thrust6system6detail10sequential3seqE
GPGPU-Sim PTX: __cudaRegisterVar: Registering const memory space of 1 bytes
GPGPU-Sim PTX registering global _ZN41_INTERNAL_1f8a2d2c_10_topo_lb_cu_297024296thrust6system6detail10sequential3seqE hostVar to name mapping
GPGPU-Sim PTX: __cudaRegisterVar: hostVar = 0x55d4d030a955; deviceAddress = _ZN41_INTERNAL_1f8a2d2c_10_topo_lb_cu_297024296thrust6system3cpp3parE; deviceName = _ZN41_INTERNAL_1f8a2d2c_10_topo_lb_cu_297024296thrust6system3cpp3parE
GPGPU-Sim PTX: __cudaRegisterVar: Registering const memory space of 1 bytes
GPGPU-Sim PTX registering global _ZN41_INTERNAL_1f8a2d2c_10_topo_lb_cu_297024296thrust6system3cpp3parE hostVar to name mapping
GPGPU-Sim PTX: __cudaRegisterVar: hostVar = 0x55d4d030a956; deviceAddress = _ZN41_INTERNAL_1f8a2d2c_10_topo_lb_cu_297024296thrust8cuda_cub3parE; deviceName = _ZN41_INTERNAL_1f8a2d2c_10_topo_lb_cu_297024296thrust8cuda_cub3parE
GPGPU-Sim PTX: __cudaRegisterVar: Registering const memory space of 1 bytes
GPGPU-Sim PTX registering global _ZN41_INTERNAL_1f8a2d2c_10_topo_lb_cu_297024296thrust8cuda_cub3parE hostVar to name mapping
GPGPU-Sim PTX: __cudaRegisterVar: hostVar = 0x55d4d030a8fc; deviceAddress = _ZN41_INTERNAL_1f8a2d2c_10_topo_lb_cu_297024296thrust12placeholders2_1E; deviceName = _ZN41_INTERNAL_1f8a2d2c_10_topo_lb_cu_297024296thrust12placeholders2_1E
GPGPU-Sim PTX: __cudaRegisterVar: Registering const memory space of 1 bytes
GPGPU-Sim PTX registering global _ZN41_INTERNAL_1f8a2d2c_10_topo_lb_cu_297024296thrust12placeholders2_1E hostVar to name mapping
GPGPU-Sim PTX: __cudaRegisterVar: hostVar = 0x55d4d030a8fd; deviceAddress = _ZN41_INTERNAL_1f8a2d2c_10_topo_lb_cu_297024296thrust12placeholders2_2E; deviceName = _ZN41_INTERNAL_1f8a2d2c_10_topo_lb_cu_297024296thrust12placeholders2_2E
GPGPU-Sim PTX: __cudaRegisterVar: Registering const memory space of 1 bytes
GPGPU-Sim PTX registering global _ZN41_INTERNAL_1f8a2d2c_10_topo_lb_cu_297024296thrust12placeholders2_2E hostVar to name mapping
GPGPU-Sim PTX: __cudaRegisterVar: hostVar = 0x55d4d030a8fe; deviceAddress = _ZN41_INTERNAL_1f8a2d2c_10_topo_lb_cu_297024296thrust12placeholders2_3E; deviceName = _ZN41_INTERNAL_1f8a2d2c_10_topo_lb_cu_297024296thrust12placeholders2_3E
GPGPU-Sim PTX: __cudaRegisterVar: Registering const memory space of 1 bytes
GPGPU-Sim PTX registering global _ZN41_INTERNAL_1f8a2d2c_10_topo_lb_cu_297024296thrust12placeholders2_3E hostVar to name mapping
GPGPU-Sim PTX: __cudaRegisterVar: hostVar = 0x55d4d030a8ff; deviceAddress = _ZN41_INTERNAL_1f8a2d2c_10_topo_lb_cu_297024296thrust12placeholders2_4E; deviceName = _ZN41_INTERNAL_1f8a2d2c_10_topo_lb_cu_297024296thrust12placeholders2_4E
GPGPU-Sim PTX: __cudaRegisterVar: Registering const memory space of 1 bytes
GPGPU-Sim PTX registering global _ZN41_INTERNAL_1f8a2d2c_10_topo_lb_cu_297024296thrust12placeholders2_4E hostVar to name mapping
GPGPU-Sim PTX: __cudaRegisterVar: hostVar = 0x55d4d030a900; deviceAddress = _ZN41_INTERNAL_1f8a2d2c_10_topo_lb_cu_297024296thrust12placeholders2_5E; deviceName = _ZN41_INTERNAL_1f8a2d2c_10_topo_lb_cu_297024296thrust12placeholders2_5E
GPGPU-Sim PTX: __cudaRegisterVar: Registering const memory space of 1 bytes
GPGPU-Sim PTX registering global _ZN41_INTERNAL_1f8a2d2c_10_topo_lb_cu_297024296thrust12placeholders2_5E hostVar to name mapping
GPGPU-Sim PTX: __cudaRegisterVar: hostVar = 0x55d4d030a901; deviceAddress = _ZN41_INTERNAL_1f8a2d2c_10_topo_lb_cu_297024296thrust12placeholders2_6E; deviceName = _ZN41_INTERNAL_1f8a2d2c_10_topo_lb_cu_297024296thrust12placeholders2_6E
GPGPU-Sim PTX: __cudaRegisterVar: Registering const memory space of 1 bytes
GPGPU-Sim PTX registering global _ZN41_INTERNAL_1f8a2d2c_10_topo_lb_cu_297024296thrust12placeholders2_6E hostVar to name mapping
GPGPU-Sim PTX: __cudaRegisterVar: hostVar = 0x55d4d030a902; deviceAddress = _ZN41_INTERNAL_1f8a2d2c_10_topo_lb_cu_297024296thrust12placeholders2_7E; deviceName = _ZN41_INTERNAL_1f8a2d2c_10_topo_lb_cu_297024296thrust12placeholders2_7E
GPGPU-Sim PTX: __cudaRegisterVar: Registering const memory space of 1 bytes
GPGPU-Sim PTX registering global _ZN41_INTERNAL_1f8a2d2c_10_topo_lb_cu_297024296thrust12placeholders2_7E hostVar to name mapping
GPGPU-Sim PTX: __cudaRegisterVar: hostVar = 0x55d4d030a903; deviceAddress = _ZN41_INTERNAL_1f8a2d2c_10_topo_lb_cu_297024296thrust12placeholders2_8E; deviceName = _ZN41_INTERNAL_1f8a2d2c_10_topo_lb_cu_297024296thrust12placeholders2_8E
GPGPU-Sim PTX: __cudaRegisterVar: Registering const memory space of 1 bytes
GPGPU-Sim PTX registering global _ZN41_INTERNAL_1f8a2d2c_10_topo_lb_cu_297024296thrust12placeholders2_8E hostVar to name mapping
GPGPU-Sim PTX: __cudaRegisterVar: hostVar = 0x55d4d030a904; deviceAddress = _ZN41_INTERNAL_1f8a2d2c_10_topo_lb_cu_297024296thrust12placeholders2_9E; deviceName = _ZN41_INTERNAL_1f8a2d2c_10_topo_lb_cu_297024296thrust12placeholders2_9E
GPGPU-Sim PTX: __cudaRegisterVar: Registering const memory space of 1 bytes
GPGPU-Sim PTX registering global _ZN41_INTERNAL_1f8a2d2c_10_topo_lb_cu_297024296thrust12placeholders2_9E hostVar to name mapping
GPGPU-Sim PTX: __cudaRegisterVar: hostVar = 0x55d4d030a905; deviceAddress = _ZN41_INTERNAL_1f8a2d2c_10_topo_lb_cu_297024296thrust12placeholders3_10E; deviceName = _ZN41_INTERNAL_1f8a2d2c_10_topo_lb_cu_297024296thrust12placeholders3_10E
GPGPU-Sim PTX: __cudaRegisterVar: Registering const memory space of 1 bytes
GPGPU-Sim PTX registering global _ZN41_INTERNAL_1f8a2d2c_10_topo_lb_cu_297024296thrust12placeholders3_10E hostVar to name mapping
GPGPU-Sim PTX: __cudaRegisterVar: hostVar = 0x55d4d030a954; deviceAddress = _ZN41_INTERNAL_1f8a2d2c_10_topo_lb_cu_297024296thrust3seqE; deviceName = _ZN41_INTERNAL_1f8a2d2c_10_topo_lb_cu_297024296thrust3seqE
GPGPU-Sim PTX: __cudaRegisterVar: Registering const memory space of 1 bytes
GPGPU-Sim PTX registering global _ZN41_INTERNAL_1f8a2d2c_10_topo_lb_cu_297024296thrust3seqE hostVar to name mapping
GPGPU-Sim PTX: __cudaRegisterVar: hostVar = 0x55d4d030a958; deviceAddress = _ZN41_INTERNAL_1f8a2d2c_10_topo_lb_cu_297024296thrust6deviceE; deviceName = _ZN41_INTERNAL_1f8a2d2c_10_topo_lb_cu_297024296thrust6deviceE
GPGPU-Sim PTX: __cudaRegisterVar: Registering const memory space of 1 bytes
GPGPU-Sim PTX registering global _ZN41_INTERNAL_1f8a2d2c_10_topo_lb_cu_297024296thrust6deviceE hostVar to name mapping
Betweenness Centrality by Xuhao Chen
Reading (.mtx) input file ../CudaBenchmarks/gardenia/datasets/germany_osm.mtx
Removing redundent edges... 0 redundent edges are removed
|V| 11548845 |E| 12369181
GPGPU-Sim PTX: Setting up arguments for 4 bytes starting at 0x7ffd513124dc..
GPGPU-Sim PTX: Setting up arguments for 4 bytes starting at 0x7ffd513124d8..
GPGPU-Sim PTX: Setting up arguments for 8 bytes starting at 0x7ffd513124d0..
GPGPU-Sim PTX: Setting up arguments for 8 bytes starting at 0x7ffd513124c8..
GPGPU-Sim PTX: Setting up arguments for 8 bytes starting at 0x7ffd513124c0..
GPGPU-Sim PTX: Setting up arguments for 8 bytes starting at 0x7ffd513124b8..
GPGPU-Sim PTX: Setting up arguments for 8 bytes starting at 0x7ffd513124b0..
GPGPU-Sim PTX: Setting up arguments for 8 bytes starting at 0x7ffd513124a8..

GPGPU-Sim PTX: cudaLaunch for 0x0x55d4d02efcba (mode=performance simulation) on stream 0
GPGPU-Sim PTX: finding reconvergence points for '_Z10initializeiiPfPiS0_S_PbS1_'...
GPGPU-Sim PTX: Finding dominators for '_Z10initializeiiPfPiS0_S_PbS1_'...
GPGPU-Sim PTX: Finding immediate dominators for '_Z10initializeiiPfPiS0_S_PbS1_'...
GPGPU-Sim PTX: Finding postdominators for '_Z10initializeiiPfPiS0_S_PbS1_'...
GPGPU-Sim PTX: Finding immediate postdominators for '_Z10initializeiiPfPiS0_S_PbS1_'...
GPGPU-Sim PTX: pre-decoding instructions for '_Z10initializeiiPfPiS0_S_PbS1_'...
GPGPU-Sim PTX: reconvergence points for _Z10initializeiiPfPiS0_S_PbS1_...
GPGPU-Sim PTX:  1 (potential) branch divergence @  PC=0x078 (bc_topo_lb.1.sm_75.ptx:77) @%p1 bra $L__BB0_4;

GPGPU-Sim PTX:    immediate post dominator      @  PC=0x188 (bc_topo_lb.1.sm_75.ptx:118) ret;

GPGPU-Sim PTX:  2 (potential) branch divergence @  PC=0x100 (bc_topo_lb.1.sm_75.ptx:95) @%p2 bra $L__BB0_3;

GPGPU-Sim PTX:    immediate post dominator      @  PC=0x188 (bc_topo_lb.1.sm_75.ptx:118) ret;

GPGPU-Sim PTX:  3 (potential) branch divergence @  PC=0x108 (bc_topo_lb.1.sm_75.ptx:96) bra.uni $L__BB0_2;

GPGPU-Sim PTX:    immediate post dominator      @  PC=0x158 (bc_topo_lb.1.sm_75.ptx:110) st.global.u8 [%rd3], %rs1;

GPGPU-Sim PTX:  4 (potential) branch divergence @  PC=0x150 (bc_topo_lb.1.sm_75.ptx:107) bra.uni $L__BB0_4;

GPGPU-Sim PTX:    immediate post dominator      @  PC=0x188 (bc_topo_lb.1.sm_75.ptx:118) ret;

GPGPU-Sim PTX: ... end of reconvergence points for _Z10initializeiiPfPiS0_S_PbS1_
GPGPU-Sim PTX: ... done pre-decoding instructions for '_Z10initializeiiPfPiS0_S_PbS1_'.
GPGPU-Sim PTX: pushing kernel '_Z10initializeiiPfPiS0_S_PbS1_' to stream 0, gridDim= (45113,1,1) blockDim = (256,1,1) 
GPGPU-Sim uArch: Shader 0 bind to kernel 1 '_Z10initializeiiPfPiS0_S_PbS1_'
GPGPU-Sim uArch: CTA/core = 4, limited by: threads
GPGPU-Sim: Reconfigure L1 cache to 64KB
GPGPU-Sim uArch: Shader 1 bind to kernel 1 '_Z10initializeiiPfPiS0_S_PbS1_'
GPGPU-Sim uArch: Shader 2 bind to kernel 1 '_Z10initializeiiPfPiS0_S_PbS1_'
GPGPU-Sim uArch: Shader 3 bind to kernel 1 '_Z10initializeiiPfPiS0_S_PbS1_'
GPGPU-Sim uArch: Shader 4 bind to kernel 1 '_Z10initializeiiPfPiS0_S_PbS1_'
GPGPU-Sim uArch: Shader 5 bind to kernel 1 '_Z10initializeiiPfPiS0_S_PbS1_'
GPGPU-Sim uArch: Shader 6 bind to kernel 1 '_Z10initializeiiPfPiS0_S_PbS1_'
GPGPU-Sim uArch: Shader 7 bind to kernel 1 '_Z10initializeiiPfPiS0_S_PbS1_'
GPGPU-Sim uArch: Shader 8 bind to kernel 1 '_Z10initializeiiPfPiS0_S_PbS1_'
GPGPU-Sim uArch: Shader 9 bind to kernel 1 '_Z10initializeiiPfPiS0_S_PbS1_'
GPGPU-Sim uArch: Shader 10 bind to kernel 1 '_Z10initializeiiPfPiS0_S_PbS1_'
GPGPU-Sim uArch: Shader 11 bind to kernel 1 '_Z10initializeiiPfPiS0_S_PbS1_'
GPGPU-Sim uArch: Shader 12 bind to kernel 1 '_Z10initializeiiPfPiS0_S_PbS1_'
GPGPU-Sim uArch: Shader 13 bind to kernel 1 '_Z10initializeiiPfPiS0_S_PbS1_'
GPGPU-Sim uArch: Shader 14 bind to kernel 1 '_Z10initializeiiPfPiS0_S_PbS1_'
GPGPU-Sim uArch: Shader 15 bind to kernel 1 '_Z10initializeiiPfPiS0_S_PbS1_'
GPGPU-Sim uArch: Shader 16 bind to kernel 1 '_Z10initializeiiPfPiS0_S_PbS1_'
GPGPU-Sim uArch: Shader 17 bind to kernel 1 '_Z10initializeiiPfPiS0_S_PbS1_'
GPGPU-Sim uArch: Shader 18 bind to kernel 1 '_Z10initializeiiPfPiS0_S_PbS1_'
GPGPU-Sim uArch: Shader 19 bind to kernel 1 '_Z10initializeiiPfPiS0_S_PbS1_'
GPGPU-Sim uArch: Shader 20 bind to kernel 1 '_Z10initializeiiPfPiS0_S_PbS1_'
GPGPU-Sim uArch: Shader 21 bind to kernel 1 '_Z10initializeiiPfPiS0_S_PbS1_'
GPGPU-Sim uArch: Shader 22 bind to kernel 1 '_Z10initializeiiPfPiS0_S_PbS1_'
GPGPU-Sim uArch: Shader 23 bind to kernel 1 '_Z10initializeiiPfPiS0_S_PbS1_'
GPGPU-Sim uArch: Shader 24 bind to kernel 1 '_Z10initializeiiPfPiS0_S_PbS1_'
GPGPU-Sim uArch: Shader 25 bind to kernel 1 '_Z10initializeiiPfPiS0_S_PbS1_'
GPGPU-Sim uArch: Shader 26 bind to kernel 1 '_Z10initializeiiPfPiS0_S_PbS1_'
GPGPU-Sim uArch: Shader 27 bind to kernel 1 '_Z10initializeiiPfPiS0_S_PbS1_'
GPGPU-Sim uArch: Shader 28 bind to kernel 1 '_Z10initializeiiPfPiS0_S_PbS1_'
GPGPU-Sim uArch: Shader 29 bind to kernel 1 '_Z10initializeiiPfPiS0_S_PbS1_'
Destroy streams for kernel 1: size 0
kernel_name = _Z10initializeiiPfPiS0_S_PbS1_ 
kernel_launch_uid = 1 
gpu_sim_cycle = 844196
gpu_sim_insn = 450406369
gpu_ipc =     533.5330
gpu_tot_sim_cycle = 844196
gpu_tot_sim_insn = 450406369
gpu_tot_ipc =     533.5330
gpu_tot_issued_cta = 45113
gpu_occupancy = 96.0568% 
gpu_tot_occupancy = 96.0568% 
max_total_param_size = 0
gpu_stall_dramfull = 13492679
gpu_stall_icnt2sh    = 0
partiton_level_parallism =       7.6952
partiton_level_parallism_total  =       7.6952
partiton_level_parallism_util =       7.7632
partiton_level_parallism_util_total  =       7.7632
L2_BW  =     336.1250 GB/Sec
L2_BW_total  =     336.1250 GB/Sec
gpu_total_sim_rate=60022

========= Core cache stats =========
L1I_cache:
	L1I_total_cache_accesses = 0
	L1I_total_cache_misses = 0
	L1I_total_cache_pending_hits = 0
	L1I_total_cache_reservation_fails = 0
L1D_cache:
	L1D_cache_core[0]: Access = 222771, Miss = 222768, Miss_rate = 1.000, Pending_hits = 0, Reservation_fails = 299381
	L1D_cache_core[1]: Access = 216576, Miss = 216576, Miss_rate = 1.000, Pending_hits = 0, Reservation_fails = 287640
	L1D_cache_core[2]: Access = 223344, Miss = 223344, Miss_rate = 1.000, Pending_hits = 0, Reservation_fails = 297977
	L1D_cache_core[3]: Access = 227088, Miss = 227088, Miss_rate = 1.000, Pending_hits = 0, Reservation_fails = 308185
	L1D_cache_core[4]: Access = 217008, Miss = 217008, Miss_rate = 1.000, Pending_hits = 0, Reservation_fails = 284505
	L1D_cache_core[5]: Access = 227664, Miss = 227664, Miss_rate = 1.000, Pending_hits = 0, Reservation_fails = 307563
	L1D_cache_core[6]: Access = 214128, Miss = 214128, Miss_rate = 1.000, Pending_hits = 0, Reservation_fails = 274675
	L1D_cache_core[7]: Access = 209520, Miss = 209520, Miss_rate = 1.000, Pending_hits = 0, Reservation_fails = 270508
	L1D_cache_core[8]: Access = 214992, Miss = 214992, Miss_rate = 1.000, Pending_hits = 0, Reservation_fails = 280306
	L1D_cache_core[9]: Access = 207504, Miss = 207504, Miss_rate = 1.000, Pending_hits = 0, Reservation_fails = 269460
	L1D_cache_core[10]: Access = 207360, Miss = 207360, Miss_rate = 1.000, Pending_hits = 0, Reservation_fails = 268524
	L1D_cache_core[11]: Access = 215568, Miss = 215568, Miss_rate = 1.000, Pending_hits = 0, Reservation_fails = 283558
	L1D_cache_core[12]: Access = 226656, Miss = 226656, Miss_rate = 1.000, Pending_hits = 0, Reservation_fails = 304493
	L1D_cache_core[13]: Access = 213120, Miss = 213120, Miss_rate = 1.000, Pending_hits = 0, Reservation_fails = 282506
	L1D_cache_core[14]: Access = 213120, Miss = 213120, Miss_rate = 1.000, Pending_hits = 0, Reservation_fails = 282099
	L1D_cache_core[15]: Access = 210384, Miss = 210384, Miss_rate = 1.000, Pending_hits = 0, Reservation_fails = 270278
	L1D_cache_core[16]: Access = 223920, Miss = 223920, Miss_rate = 1.000, Pending_hits = 0, Reservation_fails = 300283
	L1D_cache_core[17]: Access = 220896, Miss = 220896, Miss_rate = 1.000, Pending_hits = 0, Reservation_fails = 288691
	L1D_cache_core[18]: Access = 212256, Miss = 212256, Miss_rate = 1.000, Pending_hits = 0, Reservation_fails = 277133
	L1D_cache_core[19]: Access = 220320, Miss = 220320, Miss_rate = 1.000, Pending_hits = 0, Reservation_fails = 289438
	L1D_cache_core[20]: Access = 219168, Miss = 219168, Miss_rate = 1.000, Pending_hits = 0, Reservation_fails = 288263
	L1D_cache_core[21]: Access = 226800, Miss = 226800, Miss_rate = 1.000, Pending_hits = 0, Reservation_fails = 309274
	L1D_cache_core[22]: Access = 215280, Miss = 215280, Miss_rate = 1.000, Pending_hits = 0, Reservation_fails = 281978
	L1D_cache_core[23]: Access = 216144, Miss = 216144, Miss_rate = 1.000, Pending_hits = 0, Reservation_fails = 276389
	L1D_cache_core[24]: Access = 212356, Miss = 212356, Miss_rate = 1.000, Pending_hits = 0, Reservation_fails = 273537
	L1D_cache_core[25]: Access = 210672, Miss = 210672, Miss_rate = 1.000, Pending_hits = 0, Reservation_fails = 271879
	L1D_cache_core[26]: Access = 214128, Miss = 214128, Miss_rate = 1.000, Pending_hits = 0, Reservation_fails = 274511
	L1D_cache_core[27]: Access = 219168, Miss = 219168, Miss_rate = 1.000, Pending_hits = 0, Reservation_fails = 284910
	L1D_cache_core[28]: Access = 207216, Miss = 207216, Miss_rate = 1.000, Pending_hits = 0, Reservation_fails = 267837
	L1D_cache_core[29]: Access = 211104, Miss = 211104, Miss_rate = 1.000, Pending_hits = 0, Reservation_fails = 271949
	L1D_total_cache_accesses = 6496231
	L1D_total_cache_misses = 6496228
	L1D_total_cache_miss_rate = 1.0000
	L1D_total_cache_pending_hits = 0
	L1D_total_cache_reservation_fails = 8527730
	L1D_cache_data_port_util = 0.000
	L1D_cache_fill_port_util = 0.000
L1C_cache:
	L1C_total_cache_accesses = 0
	L1C_total_cache_misses = 0
	L1C_total_cache_pending_hits = 0
	L1C_total_cache_reservation_fails = 0
L1T_cache:
	L1T_total_cache_accesses = 0
	L1T_total_cache_misses = 0
	L1T_total_cache_pending_hits = 0
	L1T_total_cache_reservation_fails = 0

Total_core_cache_stats:
	Total_core_cache_stats_breakdown[GLOBAL_ACC_R][HIT] = 0
	Total_core_cache_stats_breakdown[GLOBAL_ACC_R][HIT_RESERVED] = 0
	Total_core_cache_stats_breakdown[GLOBAL_ACC_R][MISS] = 0
	Total_core_cache_stats_breakdown[GLOBAL_ACC_R][RESERVATION_FAIL] = 0
	Total_core_cache_stats_breakdown[GLOBAL_ACC_R][SECTOR_MISS] = 0
	Total_core_cache_stats_breakdown[GLOBAL_ACC_R][MSHR_HIT] = 0
	Total_core_cache_stats_breakdown[LOCAL_ACC_R][HIT] = 0
	Total_core_cache_stats_breakdown[LOCAL_ACC_R][HIT_RESERVED] = 0
	Total_core_cache_stats_breakdown[LOCAL_ACC_R][MISS] = 0
	Total_core_cache_stats_breakdown[LOCAL_ACC_R][RESERVATION_FAIL] = 0
	Total_core_cache_stats_breakdown[LOCAL_ACC_R][SECTOR_MISS] = 0
	Total_core_cache_stats_breakdown[LOCAL_ACC_R][MSHR_HIT] = 0
	Total_core_cache_stats_breakdown[CONST_ACC_R][HIT] = 0
	Total_core_cache_stats_breakdown[CONST_ACC_R][HIT_RESERVED] = 0
	Total_core_cache_stats_breakdown[CONST_ACC_R][MISS] = 0
	Total_core_cache_stats_breakdown[CONST_ACC_R][RESERVATION_FAIL] = 0
	Total_core_cache_stats_breakdown[CONST_ACC_R][SECTOR_MISS] = 0
	Total_core_cache_stats_breakdown[CONST_ACC_R][MSHR_HIT] = 0
	Total_core_cache_stats_breakdown[TEXTURE_ACC_R][HIT] = 0
	Total_core_cache_stats_breakdown[TEXTURE_ACC_R][HIT_RESERVED] = 0
	Total_core_cache_stats_breakdown[TEXTURE_ACC_R][MISS] = 0
	Total_core_cache_stats_breakdown[TEXTURE_ACC_R][RESERVATION_FAIL] = 0
	Total_core_cache_stats_breakdown[TEXTURE_ACC_R][SECTOR_MISS] = 0
	Total_core_cache_stats_breakdown[TEXTURE_ACC_R][MSHR_HIT] = 0
	Total_core_cache_stats_breakdown[GLOBAL_ACC_W][HIT] = 3
	Total_core_cache_stats_breakdown[GLOBAL_ACC_W][HIT_RESERVED] = 0
	Total_core_cache_stats_breakdown[GLOBAL_ACC_W][MISS] = 1624060
	Total_core_cache_stats_breakdown[GLOBAL_ACC_W][RESERVATION_FAIL] = 8527730
	Total_core_cache_stats_breakdown[GLOBAL_ACC_W][SECTOR_MISS] = 4872168
	Total_core_cache_stats_breakdown[GLOBAL_ACC_W][MSHR_HIT] = 0
	Total_core_cache_stats_breakdown[LOCAL_ACC_W][HIT] = 0
	Total_core_cache_stats_breakdown[LOCAL_ACC_W][HIT_RESERVED] = 0
	Total_core_cache_stats_breakdown[LOCAL_ACC_W][MISS] = 0
	Total_core_cache_stats_breakdown[LOCAL_ACC_W][RESERVATION_FAIL] = 0
	Total_core_cache_stats_breakdown[LOCAL_ACC_W][SECTOR_MISS] = 0
	Total_core_cache_stats_breakdown[LOCAL_ACC_W][MSHR_HIT] = 0
	Total_core_cache_stats_breakdown[L1_WRBK_ACC][HIT] = 0
	Total_core_cache_stats_breakdown[L1_WRBK_ACC][HIT_RESERVED] = 0
	Total_core_cache_stats_breakdown[L1_WRBK_ACC][MISS] = 0
	Total_core_cache_stats_breakdown[L1_WRBK_ACC][RESERVATION_FAIL] = 0
	Total_core_cache_stats_breakdown[L1_WRBK_ACC][SECTOR_MISS] = 0
	Total_core_cache_stats_breakdown[L1_WRBK_ACC][MSHR_HIT] = 0
	Total_core_cache_stats_breakdown[L2_WRBK_ACC][HIT] = 0
	Total_core_cache_stats_breakdown[L2_WRBK_ACC][HIT_RESERVED] = 0
	Total_core_cache_stats_breakdown[L2_WRBK_ACC][MISS] = 0
	Total_core_cache_stats_breakdown[L2_WRBK_ACC][RESERVATION_FAIL] = 0
	Total_core_cache_stats_breakdown[L2_WRBK_ACC][SECTOR_MISS] = 0
	Total_core_cache_stats_breakdown[L2_WRBK_ACC][MSHR_HIT] = 0
	Total_core_cache_stats_breakdown[INST_ACC_R][HIT] = 0
	Total_core_cache_stats_breakdown[INST_ACC_R][HIT_RESERVED] = 0
	Total_core_cache_stats_breakdown[INST_ACC_R][MISS] = 0
	Total_core_cache_stats_breakdown[INST_ACC_R][RESERVATION_FAIL] = 0
	Total_core_cache_stats_breakdown[INST_ACC_R][SECTOR_MISS] = 0
	Total_core_cache_stats_breakdown[INST_ACC_R][MSHR_HIT] = 0
	Total_core_cache_stats_breakdown[L1_WR_ALLOC_R][HIT] = 0
	Total_core_cache_stats_breakdown[L1_WR_ALLOC_R][HIT_RESERVED] = 0
	Total_core_cache_stats_breakdown[L1_WR_ALLOC_R][MISS] = 0
	Total_core_cache_stats_breakdown[L1_WR_ALLOC_R][RESERVATION_FAIL] = 0
	Total_core_cache_stats_breakdown[L1_WR_ALLOC_R][SECTOR_MISS] = 0
	Total_core_cache_stats_breakdown[L1_WR_ALLOC_R][MSHR_HIT] = 0
	Total_core_cache_stats_breakdown[L2_WR_ALLOC_R][HIT] = 0
	Total_core_cache_stats_breakdown[L2_WR_ALLOC_R][HIT_RESERVED] = 0
	Total_core_cache_stats_breakdown[L2_WR_ALLOC_R][MISS] = 0
	Total_core_cache_stats_breakdown[L2_WR_ALLOC_R][RESERVATION_FAIL] = 0
	Total_core_cache_stats_breakdown[L2_WR_ALLOC_R][SECTOR_MISS] = 0
	Total_core_cache_stats_breakdown[L2_WR_ALLOC_R][MSHR_HIT] = 0
	Total_core_cache_stats_breakdown[GLOBAL_ACC_W][TOTAL_ACCESS] = 6496231

Total_core_cache_fail_stats:
	Total_core_cache_fail_stats_breakdown[GLOBAL_ACC_W][MISS_QUEUE_FULL] = 8527730
ctas_completed 45113, Shader 0 warp_id issue ditsribution:
warp_id:
0, 1, 2, 3, 4, 5, 6, 7, 8, 9, 10, 11, 12, 13, 14, 15, 16, 17, 18, 19, 20, 21, 22, 23, 24, 25, 26, 27, 28, 29, 30, 31, 
distro:
15917, 15908, 15908, 15908, 15908, 15908, 15908, 15908, 15826, 15826, 15826, 15826, 15826, 15826, 15826, 15826, 15785, 15785, 15785, 15785, 15785, 15785, 15785, 15785, 15908, 15908, 15908, 15908, 15908, 15908, 15908, 15908, 
gpgpu_n_tot_thrd_icount = 473504800
gpgpu_n_tot_w_icount = 14797025
gpgpu_n_stall_shd_mem = 2492897
gpgpu_n_mem_read_local = 0
gpgpu_n_mem_write_local = 0
gpgpu_n_mem_read_global = 0
gpgpu_n_mem_write_global = 6496231
gpgpu_n_mem_texture = 0
gpgpu_n_mem_const = 0
gpgpu_n_load_insn  = 0
gpgpu_n_store_insn = 69293070
gpgpu_n_shmem_insn = 0
gpgpu_n_sstarr_insn = 0
gpgpu_n_tex_insn = 0
gpgpu_n_const_mem_insn = 0
gpgpu_n_param_mem_insn = 92391424
gpgpu_n_shmem_bkconflict = 0
gpgpu_n_cache_bkconflict = 0
gpgpu_n_intrawarp_mshr_merge = 0
gpgpu_n_cmem_portconflict = 0
gpgpu_stall_shd_mem[c_mem][resource_stall] = 0
gpgpu_stall_shd_mem[s_mem][bk_conf] = 0
gpgpu_stall_shd_mem[gl_mem][resource_stall] = 2492897
gpgpu_stall_shd_mem[gl_mem][coal_stall] = 0
gpgpu_stall_shd_mem[gl_mem][data_port_stall] = 0
gpu_reg_bank_conflict_stalls = 0
Warp Occupancy Distribution:
Stall:17353631	W0_Idle:65411191	W0_Scoreboard:3067433	W1:9	W2:0	W3:0	W4:0	W5:0	W6:0	W7:0	W8:0	W9:0	W10:0	W11:0	W12:0	W13:24	W14:0	W15:0	W16:0	W17:0	W18:0	W19:0	W20:0	W21:0	W22:0	W23:0	W24:0	W25:0	W26:0	W27:0	W28:0	W29:0	W30:0	W31:7	W32:14796985
single_issue_nums: WS0:3699275	WS1:3699266	WS2:3699242	WS3:3699242	
dual_issue_nums: WS0:0	WS1:0	WS2:0	WS3:0	
traffic_breakdown_coretomem[GLOBAL_ACC_W] = 259849240 {40:6496231,}
traffic_breakdown_memtocore[GLOBAL_ACC_W] = 51969848 {8:6496231,}
maxmflatency = 2041 
max_icnt2mem_latency = 1682 
maxmrqlatency = 3253 
max_icnt2sh_latency = 545 
averagemflatency = 1563 
avg_icnt2mem_latency = 1008 
avg_mrq_latency = 398 
avg_icnt2sh_latency = 68 
mrq_lat_table:202914 	3088 	3810 	26334 	38774 	89469 	169573 	248482 	325648 	336210 	150796 	2181 	0 	0 	0 	0 	0 	0 	0 	0 	0 	0 	0 	0 	0 	0 	0 	0 	0 	0 	0 	0 	
dq_lat_table:0 	0 	0 	0 	0 	0 	0 	0 	0 	0 	0 	0 	0 	0 	0 	0 	0 	0 	0 	0 	0 	0 	0 	0 	0 	0 	0 	0 	0 	0 	0 	0 	
mf_lat_table:0 	0 	0 	0 	0 	0 	0 	2506 	71306 	77139 	6345280 	0 	0 	0 	0 	0 	0 	0 	0 	0 	0 	0 	0 	0 	0 	0 	0 	0 	0 	0 	0 	0 	
icnt2mem_lat_table:0 	0 	0 	0 	0 	12271 	25909 	46559 	84342 	3119438 	3207712 	0 	0 	0 	0 	0 	0 	0 	0 	0 	0 	0 	0 	0 	
icnt2sh_lat_table:0 	737640 	536412 	658018 	845491 	1097437 	1395659 	1092007 	133515 	52 	0 	0 	0 	0 	0 	0 	0 	0 	0 	0 	0 	0 	0 	0 	
mf_lat_pw_table:0 	0 	0 	0 	0 	0 	0 	0 	9 	5 	825 	0 	0 	0 	0 	0 	0 	0 	0 	0 	0 	0 	0 	0 	0 	0 	0 	0 	0 	0 	0 	0 	
maximum concurrent accesses to same row:
dram[0]:        16        16        16        16        16        16        16        16        16        16        16        16        16        16        16        16 
dram[1]:        16        16        16        16        16        16        16        16        16        16        16        16        16        16        16        16 
dram[2]:        16        16        16        16        16        16        16        16        16        16        16        16        16        16        16        16 
dram[3]:        16        16        16        16        16        16        16        16        16        16        16        16        16        16        16        16 
dram[4]:        16        16        16        16        16        16        16        16        16        16        16        16        16        16        16        16 
dram[5]:        16        16        16        16        16        16        16        16        16        16        16        16        16        16        16        16 
dram[6]:        16        16        16        16        16        16        16        16        16        16        16        16        16        16        16        16 
dram[7]:        16        16        16        16        16        16        16        16        16        16        16        16        16        16        16        16 
dram[8]:        16        16        16        16        16        16        16        16        16        16        16        16        16        16        16        16 
dram[9]:        16        16        16        16        16        16        16        16        16        16        16        16        16        16        16        16 
dram[10]:        16        16        16        16        16        16        16        16        16        16        16        16        16        16        16        16 
dram[11]:        16        16        16        16        16        16        16        16        16        16        16        16        16        16        16        16 
maximum service time to same row:
dram[0]:     13607     13572     13968     13934     13667     13670     13793     13795     13835     13738     14941     15004     13947     13944     13843     13840 
dram[1]:     13581     13594     13951     13970     13638     13660     13607     13693     13689     13768     13834     14974     13933     13982     14055     14014 
dram[2]:     13543     13591     13945     13980     13635     13630     13720     13812     13957     13708     14796     14901     13976     13973     13971     13995 
dram[3]:     13557     13561     13960     13964     13764     13711     13619     13582     13754     13766     14899     14903     13949     13959     14090     14065 
dram[4]:     13532     13512     14017     14008     13651     13713     13587     13588     13831     13839     14900     14909     13819     13830     14001     13986 
dram[5]:     13503     13539     13991     13926     13676     13707     13585     13632     13827     13805     14899     14899     13787     13764     14085     14060 
dram[6]:     13535     13528     14011     14027     13682     13720     13611     13716     13755     13843     15006     15015     13831     13867     14089     14063 
dram[7]:     13461     13479     13992     14018     13751     13663     13709     13721     13790     13689     15017     14915     13881     13880     14080     14081 
dram[8]:     13468     13470     14058     14192     13661     13611     13686     13712     13769     13685     14919     14915     13840     13833     14089     14087 
dram[9]:     13480     13482     14199     14071     13687     13689     13708     13700     13778     13719     15015     14919     13783     13752     13742     13812 
dram[10]:     13477     13477     14073     14088     13683     13697     13716     13718     13796     13702     15001     14957     13850     13798     13887     13865 
dram[11]:     13602     13578     14206     14077     13670     13655     13676     13671     13809     13822     14952     14961     13819     13805     13688     13776 
average row accesses per activate:
dram[0]:  6.182021  6.303030  6.802783  6.791667  6.574016  6.663208  7.175862  7.375000  6.395689  6.529874  6.557222  6.782857  6.645883  6.876758  7.118050  7.350707 
dram[1]:  6.155325  6.205817  6.561168  6.802783  6.447104  6.695269  7.126821  7.306678  6.446858  6.477787  6.712440  6.767101  6.782218  7.034687  7.330397  7.369353 
dram[2]:  6.146234  6.029710  6.797220  6.841975  6.349050  6.416603  7.293602  7.503610  6.540945  6.589215  6.599682  6.663993  6.860561  7.088662  7.192740  7.423729 
dram[3]:  6.365723  6.355997  6.736629  6.769544  6.356436  6.597629  7.291849  7.424107  6.510972  6.714632  6.653323  6.651721  6.735223  7.012648  7.462780  7.449418 
dram[4]:  6.186617  6.227545  6.671750  6.731174  6.401073  6.603639  7.027027  7.447133  6.460342  6.608592  6.456100  6.641887  6.879239  7.126821  7.311951  7.530317 
dram[5]:  6.055313  6.135693  6.454193  6.704032  6.385616  6.688301  7.037225  7.309587  6.578781  6.697019  6.323440  6.466148  6.702659  7.176014  7.592153  7.612992 
dram[6]:  6.373180  6.443068  6.709443  6.797220  6.456303  6.600000  6.954052  7.214410  6.523548  6.594444  6.481279  6.553628  6.925063  7.156627  7.267249  7.357206 
dram[7]:  6.240810  6.519592  6.769544  6.780587  6.657097  6.684547  7.017706  7.267482  6.411265  6.724110  6.431889  6.733387  6.884934  6.947369  7.016020  7.210572 
dram[8]:  6.322188  6.364958  6.704839  6.759350  6.466305  6.699037  7.113772  7.418750  6.583201  6.482059  6.762408  6.559589  6.621815  6.851730  7.326584  7.256321 
dram[9]:  6.144018  6.345538  6.525903  6.624701  6.531299  6.802771  7.202598  7.384000  6.604928  6.573576  6.653323  6.653323  6.778321  6.948204  7.255449  7.155632 
dram[10]:  6.059723  6.223635  6.603654  6.661859  6.516003  6.699840  6.962343  7.225217  6.420402  6.699193  6.470405  6.632083  6.601587  6.739871  6.987406  7.371125 
dram[11]:  6.351145  6.288738  6.716478  6.705645  6.362805  6.657097  7.001684  7.452018  6.680868  6.527102  6.590008  6.646400  6.902075  6.942404  7.088586  7.557675 
average row locality = 1597279/236850 = 6.743842
number of total memory accesses made:
dram[0]:         0         0         0         0         0         0         0         0         0         0         0         0         0         0         0         0 
dram[1]:         0         0         0         0         0         0         0         0         0         0         0         0         0         0         0         0 
dram[2]:         0         0         0         0         0         0         0         0         0         0         0         0         0         0         0         0 
dram[3]:         0         0         0         0         0         0         0         0         0         0         0         0         0         0         0         0 
dram[4]:         0         0         0         0         0         0         0         0         0         0         0         0         0         0         0         0 
dram[5]:         0         0         0         0         0         0         0         0         0         0         0         0         0         0         0         0 
dram[6]:         0         0         0         0         0         0         0         0         0         0         0         0         0         0         0         0 
dram[7]:         0         0         0         0         0         0         0         0         0         0         0         0         0         0         0         0 
dram[8]:         0         0         0         0         0         0         0         0         0         0         0         0         0         0         0         0 
dram[9]:         0         0         0         0         0         0         0         0         0         0         0         0         0         0         0         0 
dram[10]:         0         0         0         0         0         0         0         0         0         0         0         0         0         0         0         0 
dram[11]:         0         0         0         0         0         0         0         0         0         0         0         0         0         0         0         0 
total accesses: 0
min_bank_accesses = 0!
min_chip_accesses = 0!
number of total read accesses:
dram[0]:         0         0         0         0         0         0         0         0         0         0         0         0         0         0         0         0 
dram[1]:         0         0         0         0         0         0         0         0         0         0         0         0         0         0         0         0 
dram[2]:         0         0         0         0         0         0         0         0         0         0         0         0         0         0         0         0 
dram[3]:         0         0         0         0         0         0         0         0         0         0         0         0         0         0         0         0 
[...]
Ready @ 844244 -   mf: uid=18527368, sid4294967295:w4294967295, part=11, addr=0xd0ac9380, store, size=128, L2_WRBK  status = IN_PARTITION_DRAM_LATENCY_QUEUE (844148), 
Ready @ 844245 -   mf: uid=18527388, sid4294967295:w4294967295, part=11, addr=0xd36e1700, store, size=128, L2_WRBK  status = IN_PARTITION_DRAM_LATENCY_QUEUE (844149), 
Ready @ 844256 -   mf: uid=18527392, sid4294967295:w4294967295, part=11, addr=0xd0ace780, store, size=128, L2_WRBK  status = IN_PARTITION_DRAM_LATENCY_QUEUE (844160), 
Ready @ 844258 -   mf: uid=18527431, sid4294967295:w4294967295, part=11, addr=0xd0accf00, store, size=128, L2_WRBK  status = IN_PARTITION_DRAM_LATENCY_QUEUE (844162), 
Ready @ 844269 -   mf: uid=18527412, sid4294967295:w4294967295, part=11, addr=0xcdec2380, store, size=128, L2_WRBK  status = IN_PARTITION_DRAM_LATENCY_QUEUE (844173), 
Ready @ 844269 -   mf: uid=18527459, sid4294967295:w4294967295, part=11, addr=0xd36d4b00, store, size=128, L2_WRBK  status = IN_PARTITION_DRAM_LATENCY_QUEUE (844173), 
Ready @ 844270 -   mf: uid=18527443, sid4294967295:w4294967295, part=11, addr=0xd36e1780, store, size=128, L2_WRBK  status = IN_PARTITION_DRAM_LATENCY_QUEUE (844174), 
Ready @ 844281 -   mf: uid=18527466, sid4294967295:w4294967295, part=11, addr=0xd0ac9f00, store, size=128, L2_WRBK  status = IN_PARTITION_DRAM_LATENCY_QUEUE (844185), 
Ready @ 844283 -   mf: uid=18527484, sid4294967295:w4294967295, part=11, addr=0xd0accf80, store, size=128, L2_WRBK  status = IN_PARTITION_DRAM_LATENCY_QUEUE (844187), 
DRAM[11]: 16 bks, busW=2 BL=16 CL=24, tRRD=12 tCCD=4, tRCD=24 tRAS=55 tRP=24 tRC=78
n_cmd=2164912 n_nop=1598218 n_act=19686 n_pre=19670 n_ref_event=0 n_req=133172 n_rd=0 n_rd_L2_A=0 n_write=0 n_wr_bk=532405 bw_util=0.9837
n_activity=2129995 dram_eff=0.9998
bk0: 0a 672056i bk1: 0a 649680i bk2: 0a 676246i bk3: 0a 663469i bk4: 0a 699870i bk5: 0a 673469i bk6: 0a 711543i bk7: 0a 678503i bk8: 0a 711189i bk9: 0a 679998i bk10: 0a 702219i bk11: 0a 672243i bk12: 0a 710495i bk13: 0a 681476i bk14: 0a 704359i bk15: 0a 673878i 

------------------------------------------------------------------------

Row_Buffer_Locality = 0.852105
Row_Buffer_Locality_read = -nan
Row_Buffer_Locality_write = 0.852105
Bank_Level_Parallism = 11.177894
Bank_Level_Parallism_Col = 10.702865
Bank_Level_Parallism_Ready = 7.767142
write_to_read_ratio_blp_rw_average = 1.000000
GrpLevelPara = 3.992631 

BW Util details:
bwutil = 0.983698 
total_CMD = 2164912 
util_bw = 2129620 
Wasted_Col = 232 
Wasted_Row = 0 
Idle = 35060 

BW Util Bottlenecks: 
RCDc_limit = 0 
RCDWRc_limit = 80 
WTRc_limit = 0 
RTWc_limit = 0 
CCDLc_limit = 311 
rwq = 0 
CCDLc_limit_alone = 311 
WTRc_limit_alone = 0 
RTWc_limit_alone = 0 

Commands details: 
total_CMD = 2164912 
n_nop = 1598218 
Read = 0 
Write = 0 
L2_Alloc = 0 
L2_WB = 532405 
n_act = 19686 
n_pre = 19670 
n_ref = 0 
n_req = 133172 
total_req = 532405 

Dual Bus Interface Util: 
issued_total_row = 39356 
issued_total_col = 532405 
Row_Bus_Util =  0.018179 
CoL_Bus_Util = 0.245925 
Either_Row_CoL_Bus_Util = 0.261763 
Issued_on_Two_Bus_Simul_Util = 0.002341 
issued_two_Eff = 0.008941 
queue_avg = 62.793892 


dram_util_bins: 0 0 0 0 0 0 0 0 0 0
dram_eff_bins: 0 0 0 0 0 0 0 0 0 0
mrqq: max=64 avg=62.7939

========= L2 cache stats =========
L2_cache_bank[0]: Access = 270680, Miss = 270680, Miss_rate = 1.000, Pending_hits = 0, Reservation_fails = 0
L2_cache_bank[1]: Access = 270678, Miss = 270678, Miss_rate = 1.000, Pending_hits = 0, Reservation_fails = 0
L2_cache_bank[2]: Access = 270681, Miss = 270680, Miss_rate = 1.000, Pending_hits = 0, Reservation_fails = 0
L2_cache_bank[3]: Access = 270680, Miss = 270680, Miss_rate = 1.000, Pending_hits = 0, Reservation_fails = 0
L2_cache_bank[4]: Access = 270680, Miss = 270680, Miss_rate = 1.000, Pending_hits = 0, Reservation_fails = 0
L2_cache_bank[5]: Access = 270678, Miss = 270678, Miss_rate = 1.000, Pending_hits = 0, Reservation_fails = 0
L2_cache_bank[6]: Access = 270676, Miss = 270676, Miss_rate = 1.000, Pending_hits = 0, Reservation_fails = 0
L2_cache_bank[7]: Access = 270674, Miss = 270674, Miss_rate = 1.000, Pending_hits = 0, Reservation_fails = 0
L2_cache_bank[8]: Access = 270676, Miss = 270676, Miss_rate = 1.000, Pending_hits = 0, Reservation_fails = 0
L2_cache_bank[9]: Access = 270676, Miss = 270676, Miss_rate = 1.000, Pending_hits = 0, Reservation_fails = 0
L2_cache_bank[10]: Access = 270676, Miss = 270676, Miss_rate = 1.000, Pending_hits = 0, Reservation_fails = 0
L2_cache_bank[11]: Access = 270674, Miss = 270674, Miss_rate = 1.000, Pending_hits = 0, Reservation_fails = 0
L2_cache_bank[12]: Access = 270676, Miss = 270676, Miss_rate = 1.000, Pending_hits = 0, Reservation_fails = 0
L2_cache_bank[13]: Access = 270676, Miss = 270676, Miss_rate = 1.000, Pending_hits = 0, Reservation_fails = 0
L2_cache_bank[14]: Access = 270676, Miss = 270676, Miss_rate = 1.000, Pending_hits = 0, Reservation_fails = 0
L2_cache_bank[15]: Access = 270674, Miss = 270674, Miss_rate = 1.000, Pending_hits = 0, Reservation_fails = 0
L2_cache_bank[16]: Access = 270677, Miss = 270676, Miss_rate = 1.000, Pending_hits = 0, Reservation_fails = 0
L2_cache_bank[17]: Access = 270674, Miss = 270674, Miss_rate = 1.000, Pending_hits = 0, Reservation_fails = 0
L2_cache_bank[18]: Access = 270672, Miss = 270672, Miss_rate = 1.000, Pending_hits = 0, Reservation_fails = 0
L2_cache_bank[19]: Access = 270672, Miss = 270672, Miss_rate = 1.000, Pending_hits = 0, Reservation_fails = 0
L2_cache_bank[20]: Access = 270672, Miss = 270672, Miss_rate = 1.000, Pending_hits = 0, Reservation_fails = 0
L2_cache_bank[21]: Access = 270672, Miss = 270672, Miss_rate = 1.000, Pending_hits = 0, Reservation_fails = 0
L2_cache_bank[22]: Access = 270681, Miss = 270680, Miss_rate = 1.000, Pending_hits = 0, Reservation_fails = 0
L2_cache_bank[23]: Access = 270680, Miss = 270680, Miss_rate = 1.000, Pending_hits = 0, Reservation_fails = 0
L2_total_cache_accesses = 6496231
L2_total_cache_misses = 6496228
L2_total_cache_miss_rate = 1.0000
L2_total_cache_pending_hits = 0
L2_total_cache_reservation_fails = 0
L2_total_cache_breakdown:
	L2_cache_stats_breakdown[GLOBAL_ACC_R][HIT] = 0
	L2_cache_stats_breakdown[GLOBAL_ACC_R][HIT_RESERVED] = 0
	L2_cache_stats_breakdown[GLOBAL_ACC_R][MISS] = 0
	L2_cache_stats_breakdown[GLOBAL_ACC_R][RESERVATION_FAIL] = 0
	L2_cache_stats_breakdown[GLOBAL_ACC_R][SECTOR_MISS] = 0
	L2_cache_stats_breakdown[GLOBAL_ACC_R][MSHR_HIT] = 0
	L2_cache_stats_breakdown[LOCAL_ACC_R][HIT] = 0
	L2_cache_stats_breakdown[LOCAL_ACC_R][HIT_RESERVED] = 0
	L2_cache_stats_breakdown[LOCAL_ACC_R][MISS] = 0
	L2_cache_stats_breakdown[LOCAL_ACC_R][RESERVATION_FAIL] = 0
	L2_cache_stats_breakdown[LOCAL_ACC_R][SECTOR_MISS] = 0
	L2_cache_stats_breakdown[LOCAL_ACC_R][MSHR_HIT] = 0
	L2_cache_stats_breakdown[CONST_ACC_R][HIT] = 0
	L2_cache_stats_breakdown[CONST_ACC_R][HIT_RESERVED] = 0
	L2_cache_stats_breakdown[CONST_ACC_R][MISS] = 0
	L2_cache_stats_breakdown[CONST_ACC_R][RESERVATION_FAIL] = 0
	L2_cache_stats_breakdown[CONST_ACC_R][SECTOR_MISS] = 0
	L2_cache_stats_breakdown[CONST_ACC_R][MSHR_HIT] = 0
	L2_cache_stats_breakdown[TEXTURE_ACC_R][HIT] = 0
	L2_cache_stats_breakdown[TEXTURE_ACC_R][HIT_RESERVED] = 0
	L2_cache_stats_breakdown[TEXTURE_ACC_R][MISS] = 0
	L2_cache_stats_breakdown[TEXTURE_ACC_R][RESERVATION_FAIL] = 0
	L2_cache_stats_breakdown[TEXTURE_ACC_R][SECTOR_MISS] = 0
	L2_cache_stats_breakdown[TEXTURE_ACC_R][MSHR_HIT] = 0
	L2_cache_stats_breakdown[GLOBAL_ACC_W][HIT] = 3
	L2_cache_stats_breakdown[GLOBAL_ACC_W][HIT_RESERVED] = 0
	L2_cache_stats_breakdown[GLOBAL_ACC_W][MISS] = 1624060
	L2_cache_stats_breakdown[GLOBAL_ACC_W][RESERVATION_FAIL] = 0
	L2_cache_stats_breakdown[GLOBAL_ACC_W][SECTOR_MISS] = 4872168
	L2_cache_stats_breakdown[GLOBAL_ACC_W][MSHR_HIT] = 0
	L2_cache_stats_breakdown[LOCAL_ACC_W][HIT] = 0
	L2_cache_stats_breakdown[LOCAL_ACC_W][HIT_RESERVED] = 0
	L2_cache_stats_breakdown[LOCAL_ACC_W][MISS] = 0
	L2_cache_stats_breakdown[LOCAL_ACC_W][RESERVATION_FAIL] = 0
	L2_cache_stats_breakdown[LOCAL_ACC_W][SECTOR_MISS] = 0
	L2_cache_stats_breakdown[LOCAL_ACC_W][MSHR_HIT] = 0
	L2_cache_stats_breakdown[L1_WRBK_ACC][HIT] = 0
	L2_cache_stats_breakdown[L1_WRBK_ACC][HIT_RESERVED] = 0
	L2_cache_stats_breakdown[L1_WRBK_ACC][MISS] = 0
	L2_cache_stats_breakdown[L1_WRBK_ACC][RESERVATION_FAIL] = 0
	L2_cache_stats_breakdown[L1_WRBK_ACC][SECTOR_MISS] = 0
	L2_cache_stats_breakdown[L1_WRBK_ACC][MSHR_HIT] = 0
	L2_cache_stats_breakdown[L2_WRBK_ACC][HIT] = 0
	L2_cache_stats_breakdown[L2_WRBK_ACC][HIT_RESERVED] = 0
	L2_cache_stats_breakdown[L2_WRBK_ACC][MISS] = 0
	L2_cache_stats_breakdown[L2_WRBK_ACC][RESERVATION_FAIL] = 0
	L2_cache_stats_breakdown[L2_WRBK_ACC][SECTOR_MISS] = 0
	L2_cache_stats_breakdown[L2_WRBK_ACC][MSHR_HIT] = 0
	L2_cache_stats_breakdown[INST_ACC_R][HIT] = 0
	L2_cache_stats_breakdown[INST_ACC_R][HIT_RESERVED] = 0
	L2_cache_stats_breakdown[INST_ACC_R][MISS] = 0
	L2_cache_stats_breakdown[INST_ACC_R][RESERVATION_FAIL] = 0
	L2_cache_stats_breakdown[INST_ACC_R][SECTOR_MISS] = 0
	L2_cache_stats_breakdown[INST_ACC_R][MSHR_HIT] = 0
	L2_cache_stats_breakdown[L1_WR_ALLOC_R][HIT] = 0
	L2_cache_stats_breakdown[L1_WR_ALLOC_R][HIT_RESERVED] = 0
	L2_cache_stats_breakdown[L1_WR_ALLOC_R][MISS] = 0
	L2_cache_stats_breakdown[L1_WR_ALLOC_R][RESERVATION_FAIL] = 0
	L2_cache_stats_breakdown[L1_WR_ALLOC_R][SECTOR_MISS] = 0
	L2_cache_stats_breakdown[L1_WR_ALLOC_R][MSHR_HIT] = 0
	L2_cache_stats_breakdown[L2_WR_ALLOC_R][HIT] = 0
	L2_cache_stats_breakdown[L2_WR_ALLOC_R][HIT_RESERVED] = 0
	L2_cache_stats_breakdown[L2_WR_ALLOC_R][MISS] = 0
	L2_cache_stats_breakdown[L2_WR_ALLOC_R][RESERVATION_FAIL] = 0
	L2_cache_stats_breakdown[L2_WR_ALLOC_R][SECTOR_MISS] = 0
	L2_cache_stats_breakdown[L2_WR_ALLOC_R][MSHR_HIT] = 0
	L2_cache_stats_breakdown[GLOBAL_ACC_W][TOTAL_ACCESS] = 6496231
L2_total_cache_reservation_fail_breakdown:
L2_cache_data_port_util = 0.316
L2_cache_fill_port_util = 0.000

icnt_total_pkts_mem_to_simt=6496231
icnt_total_pkts_simt_to_mem=6496231
LD_mem_lat_dist  0 0 0 0 0 0 0 0 0 0 0 0 0 0 0 0 0 0 0 0 0 0 0 0 0 0 0
ST_mem_lat_dist  0 0 0 0 0 0 0 0 0 0 0 0 0 0 0 0 0 0 0 0 0 0 0 0 0 0 0
----------------------------Interconnect-DETAILS--------------------------------
Req_Network_injected_packets_num = 6496231
Req_Network_cycles = 844196
Req_Network_injected_packets_per_cycle =       7.6952 
Req_Network_conflicts_per_cycle =       1.3299
Req_Network_conflicts_per_cycle_util =       1.3425
Req_Bank_Level_Parallism =       7.7679
Req_Network_in_buffer_full_per_cycle =       0.0000
Req_Network_in_buffer_avg_util =       1.3207
Req_Network_out_buffer_full_per_cycle =       0.0000
Req_Network_out_buffer_avg_util =     295.9672

Reply_Network_injected_packets_num = 6496231
Reply_Network_cycles = 844196
Reply_Network_injected_packets_per_cycle =        7.6952
Reply_Network_conflicts_per_cycle =       14.3555
Reply_Network_conflicts_per_cycle_util =      14.4643
Reply_Bank_Level_Parallism =       7.7535
Reply_Network_in_buffer_full_per_cycle =       0.0000
Reply_Network_in_buffer_avg_util =      21.1636
Reply_Network_out_buffer_full_per_cycle =       0.0000
Reply_Network_out_buffer_avg_util =       0.2565
----------------------------END-of-Interconnect-DETAILS-------------------------


gpgpu_simulation_time = 0 days, 2 hrs, 5 min, 4 sec (7504 sec)
gpgpu_simulation_rate = 60022 (inst/sec)
gpgpu_simulation_rate = 112 (cycle/sec)
gpgpu_silicon_slowdown = 12187500x
GPGPU-Sim: synchronize waiting for inactive GPU simulation
GPGPU-Sim API: Stream Manager State
GPGPU-Sim: detected inactive GPU simulation thread
Launching CUDA BC solver (45113 CTAs/SM, 256 threads/CTA) ...
GPGPU-Sim PTX: Setting up arguments for 4 bytes starting at 0x7ffd513124dc..
GPGPU-Sim PTX: Setting up arguments for 8 bytes starting at 0x7ffd513124d0..
GPGPU-Sim PTX: Setting up arguments for 8 bytes starting at 0x7ffd513124c8..
GPGPU-Sim PTX: Setting up arguments for 8 bytes starting at 0x7ffd513124c0..
GPGPU-Sim PTX: Setting up arguments for 8 bytes starting at 0x7ffd513124b8..
GPGPU-Sim PTX: Setting up arguments for 4 bytes starting at 0x7ffd513124d8..
GPGPU-Sim PTX: Setting up arguments for 8 bytes starting at 0x7ffd513124b0..
GPGPU-Sim PTX: Setting up arguments for 8 bytes starting at 0x7ffd513124a8..

GPGPU-Sim PTX: cudaLaunch for 0x0x55d4d02f0156 (mode=performance simulation) on stream 0
GPGPU-Sim PTX: finding reconvergence points for '_Z10forward_lbiPKmPKiPiS3_iPbS4_'...
GPGPU-Sim PTX: Finding dominators for '_Z10forward_lbiPKmPKiPiS3_iPbS4_'...
GPGPU-Sim PTX: Finding immediate dominators for '_Z10forward_lbiPKmPKiPiS3_iPbS4_'...
GPGPU-Sim PTX: Finding postdominators for '_Z10forward_lbiPKmPKiPiS3_iPbS4_'...
GPGPU-Sim PTX: Finding immediate postdominators for '_Z10forward_lbiPKmPKiPiS3_iPbS4_'...
GPGPU-Sim PTX: pre-decoding instructions for '_Z10forward_lbiPKmPKiPiS3_iPbS4_'...
GPGPU-Sim PTX: reconvergence points for _Z10forward_lbiPKmPKiPiS3_iPbS4_...
GPGPU-Sim PTX:  1 (potential) branch divergence @  PC=0x618 (bc_topo_lb.1.sm_75.ptx:356) @%p4 bra $L__BB2_4;

GPGPU-Sim PTX:    immediate post dominator      @  PC=0x678 (bc_topo_lb.1.sm_75.ptx:373) mov.u32 %r62, -1;

GPGPU-Sim PTX:  2 (potential) branch divergence @  PC=0x630 (bc_topo_lb.1.sm_75.ptx:360) @%p6 bra $L__BB2_4;

GPGPU-Sim PTX:    immediate post dominator      @  PC=0x678 (bc_topo_lb.1.sm_75.ptx:373) mov.u32 %r62, -1;

GPGPU-Sim PTX:  3 (potential) branch divergence @  PC=0x648 (bc_topo_lb.1.sm_75.ptx:364) @%p8 bra $L__BB2_4;

GPGPU-Sim PTX:    immediate post dominator      @  PC=0x678 (bc_topo_lb.1.sm_75.ptx:373) mov.u32 %r62, -1;

GPGPU-Sim PTX:  4 (potential) branch divergence @  PC=0x6b8 (bc_topo_lb.1.sm_75.ptx:381) @%p4 bra $L__BB2_8;

GPGPU-Sim PTX:    immediate post dominator      @  PC=0x760 (bc_topo_lb.1.sm_75.ptx:407) shr.u32 %r74, %r1, 3;

GPGPU-Sim PTX:  5 (potential) branch divergence @  PC=0x6d0 (bc_topo_lb.1.sm_75.ptx:385) @%p11 bra $L__BB2_8;

GPGPU-Sim PTX:    immediate post dominator      @  PC=0x760 (bc_topo_lb.1.sm_75.ptx:407) shr.u32 %r74, %r1, 3;

GPGPU-Sim PTX:  6 (potential) branch divergence @  PC=0x6f0 (bc_topo_lb.1.sm_75.ptx:390) @%p12 bra $L__BB2_8;

GPGPU-Sim PTX:    immediate post dominator      @  PC=0x760 (bc_topo_lb.1.sm_75.ptx:407) shr.u32 %r74, %r1, 3;

GPGPU-Sim PTX:  7 (potential) branch divergence @  PC=0x7a0 (bc_topo_lb.1.sm_75.ptx:415) @%p13 bra $L__BB2_11;

GPGPU-Sim PTX:    immediate post dominator      @  PC=0x9b0 (bc_topo_lb.1.sm_75.ptx:487) bar.sync 0;

GPGPU-Sim PTX:  8 (potential) branch divergence @  PC=0x9a0 (bc_topo_lb.1.sm_75.ptx:482) @%p14 bra $L__BB2_11;

GPGPU-Sim PTX:    immediate post dominator      @  PC=0x9b0 (bc_topo_lb.1.sm_75.ptx:487) bar.sync 0;

GPGPU-Sim PTX:  9 (potential) branch divergence @  PC=0x9c8 (bc_topo_lb.1.sm_75.ptx:490) @%p15 bra $L__BB2_29;

GPGPU-Sim PTX:    immediate post dominator      @  PC=0xd20 (bc_topo_lb.1.sm_75.ptx:623) ret;

GPGPU-Sim PTX: 10 (potential) branch divergence @  PC=0xa50 (bc_topo_lb.1.sm_75.ptx:510) @%p18 bra $L__BB2_23;

GPGPU-Sim PTX:    immediate post dominator      @  PC=0xc48 (bc_topo_lb.1.sm_75.ptx:587) bar.sync 0;

GPGPU-Sim PTX: 11 (potential) branch divergence @  PC=0xaa0 (bc_topo_lb.1.sm_75.ptx:521) @%p19 bra $L__BB2_18;

GPGPU-Sim PTX:    immediate post dominator      @  PC=0xb60 (bc_topo_lb.1.sm_75.ptx:551) setp.eq.s32 %p21, %r21, 0;

GPGPU-Sim PTX: 12 (potential) branch divergence @  PC=0xb50 (bc_topo_lb.1.sm_75.ptx:546) @%p20 bra $L__BB2_16;

GPGPU-Sim PTX:    immediate post dominator      @  PC=0xb58 (bc_topo_lb.1.sm_75.ptx:548) add.s32 %r200, %r192, %r14;

GPGPU-Sim PTX: 13 (potential) branch divergence @  PC=0xb68 (bc_topo_lb.1.sm_75.ptx:552) @%p21 bra $L__BB2_23;

GPGPU-Sim PTX:    immediate post dominator      @  PC=0xc48 (bc_topo_lb.1.sm_75.ptx:587) bar.sync 0;

GPGPU-Sim PTX: 14 (potential) branch divergence @  PC=0xbb8 (bc_topo_lb.1.sm_75.ptx:563) @%p22 bra $L__BB2_22;

GPGPU-Sim PTX:    immediate post dominator      @  PC=0xc40 (bc_topo_lb.1.sm_75.ptx:584) add.s32 %r200, %r198, %r14;

GPGPU-Sim PTX: 15 (potential) branch divergence @  PC=0xc10 (bc_topo_lb.1.sm_75.ptx:575) @%p23 bra $L__BB2_22;

GPGPU-Sim PTX:    immediate post dominator      @  PC=0xc40 (bc_topo_lb.1.sm_75.ptx:584) add.s32 %r200, %r198, %r14;

GPGPU-Sim PTX: 16 (potential) branch divergence @  PC=0xc58 (bc_topo_lb.1.sm_75.ptx:589) @%p24 bra $L__BB2_28;

GPGPU-Sim PTX:    immediate post dominator      @  PC=0xd00 (bc_topo_lb.1.sm_75.ptx:617) add.s32 %r189, %r189, 256;

GPGPU-Sim PTX: 17 (potential) branch divergence @  PC=0xcc8 (bc_topo_lb.1.sm_75.ptx:604) @%p25 bra $L__BB2_26;

GPGPU-Sim PTX:    immediate post dominator      @  PC=0xce0 (bc_topo_lb.1.sm_75.ptx:610) setp.ne.s32 %p26, %r202, %r55;

GPGPU-Sim PTX: 18 (potential) branch divergence @  PC=0xce8 (bc_topo_lb.1.sm_75.ptx:611) @%p26 bra $L__BB2_28;

GPGPU-Sim PTX:    immediate post dominator      @  PC=0xd00 (bc_topo_lb.1.sm_75.ptx:617) add.s32 %r189, %r189, 256;

GPGPU-Sim PTX: 19 (potential) branch divergence @  PC=0xd18 (bc_topo_lb.1.sm_75.ptx:620) @%p27 bra $L__BB2_13;

GPGPU-Sim PTX:    immediate post dominator      @  PC=0xd20 (bc_topo_lb.1.sm_75.ptx:623) ret;

GPGPU-Sim PTX: ... end of reconvergence points for _Z10forward_lbiPKmPKiPiS3_iPbS4_
GPGPU-Sim PTX: ... done pre-decoding instructions for '_Z10forward_lbiPKmPKiPiS3_iPbS4_'.
GPGPU-Sim PTX: pushing kernel '_Z10forward_lbiPKmPKiPiS3_iPbS4_' to stream 0, gridDim= (45113,1,1) blockDim = (256,1,1) 
GPGPU-Sim uArch: Shader 25 bind to kernel 2 '_Z10forward_lbiPKmPKiPiS3_iPbS4_'
GPGPU-Sim uArch: CTA/core = 4, limited by: threads
GPGPU-Sim: Reconfigure L1 cache to 64KB
GPGPU-Sim uArch: Shader 26 bind to kernel 2 '_Z10forward_lbiPKmPKiPiS3_iPbS4_'
GPGPU-Sim uArch: Shader 27 bind to kernel 2 '_Z10forward_lbiPKmPKiPiS3_iPbS4_'
GPGPU-Sim uArch: Shader 28 bind to kernel 2 '_Z10forward_lbiPKmPKiPiS3_iPbS4_'
GPGPU-Sim uArch: Shader 29 bind to kernel 2 '_Z10forward_lbiPKmPKiPiS3_iPbS4_'
GPGPU-Sim uArch: Shader 0 bind to kernel 2 '_Z10forward_lbiPKmPKiPiS3_iPbS4_'
GPGPU-Sim uArch: Shader 1 bind to kernel 2 '_Z10forward_lbiPKmPKiPiS3_iPbS4_'
GPGPU-Sim uArch: Shader 2 bind to kernel 2 '_Z10forward_lbiPKmPKiPiS3_iPbS4_'
GPGPU-Sim uArch: Shader 3 bind to kernel 2 '_Z10forward_lbiPKmPKiPiS3_iPbS4_'
GPGPU-Sim uArch: Shader 4 bind to kernel 2 '_Z10forward_lbiPKmPKiPiS3_iPbS4_'
GPGPU-Sim uArch: Shader 5 bind to kernel 2 '_Z10forward_lbiPKmPKiPiS3_iPbS4_'
GPGPU-Sim uArch: Shader 6 bind to kernel 2 '_Z10forward_lbiPKmPKiPiS3_iPbS4_'
GPGPU-Sim uArch: Shader 7 bind to kernel 2 '_Z10forward_lbiPKmPKiPiS3_iPbS4_'
GPGPU-Sim uArch: Shader 8 bind to kernel 2 '_Z10forward_lbiPKmPKiPiS3_iPbS4_'
GPGPU-Sim uArch: Shader 9 bind to kernel 2 '_Z10forward_lbiPKmPKiPiS3_iPbS4_'
GPGPU-Sim uArch: Shader 10 bind to kernel 2 '_Z10forward_lbiPKmPKiPiS3_iPbS4_'
GPGPU-Sim uArch: Shader 11 bind to kernel 2 '_Z10forward_lbiPKmPKiPiS3_iPbS4_'
GPGPU-Sim uArch: Shader 12 bind to kernel 2 '_Z10forward_lbiPKmPKiPiS3_iPbS4_'
GPGPU-Sim uArch: Shader 13 bind to kernel 2 '_Z10forward_lbiPKmPKiPiS3_iPbS4_'
GPGPU-Sim uArch: Shader 14 bind to kernel 2 '_Z10forward_lbiPKmPKiPiS3_iPbS4_'
GPGPU-Sim uArch: Shader 15 bind to kernel 2 '_Z10forward_lbiPKmPKiPiS3_iPbS4_'
GPGPU-Sim uArch: Shader 16 bind to kernel 2 '_Z10forward_lbiPKmPKiPiS3_iPbS4_'
GPGPU-Sim uArch: Shader 17 bind to kernel 2 '_Z10forward_lbiPKmPKiPiS3_iPbS4_'
GPGPU-Sim uArch: Shader 18 bind to kernel 2 '_Z10forward_lbiPKmPKiPiS3_iPbS4_'
GPGPU-Sim uArch: Shader 19 bind to kernel 2 '_Z10forward_lbiPKmPKiPiS3_iPbS4_'
GPGPU-Sim uArch: Shader 20 bind to kernel 2 '_Z10forward_lbiPKmPKiPiS3_iPbS4_'
GPGPU-Sim uArch: Shader 21 bind to kernel 2 '_Z10forward_lbiPKmPKiPiS3_iPbS4_'
GPGPU-Sim uArch: Shader 22 bind to kernel 2 '_Z10forward_lbiPKmPKiPiS3_iPbS4_'
GPGPU-Sim uArch: Shader 23 bind to kernel 2 '_Z10forward_lbiPKmPKiPiS3_iPbS4_'
GPGPU-Sim uArch: Shader 24 bind to kernel 2 '_Z10forward_lbiPKmPKiPiS3_iPbS4_'
