

        *** GPGPU-Sim Simulator Version 4.2.0  [build gpgpu-sim_git-commit-5e9d31b8132651796656877ecb58fde27177ba7a_modified_303.0] ***


GPGPU-Sim PTX: simulation mode 0 (can change with PTX_SIM_MODE_FUNC environment variable:
               1=functional simulation only, 0=detailed performance simulator)
GPGPU-Sim PTX: overriding embedded ptx with ptx file (PTX_SIM_USE_PTX_FILE is set)
GPGPU-Sim: Configuration options:

-save_embedded_ptx                      0 # saves ptx files embedded in binary as <n>.ptx
-keep                                   0 # keep intermediate files created by GPGPU-Sim when interfacing with external programs
-gpgpu_ptx_save_converted_ptxplus                    0 # Saved converted ptxplus to a file
-gpgpu_occupancy_sm_number                   75 # The SM number to pass to ptxas when getting register usage for computing GPU occupancy. This parameter is required in the config.
-ptx_opcode_latency_int           4,4,4,4,21 # Opcode latencies for integers <ADD,MAX,MUL,MAD,DIV,SHFL>Default 1,1,19,25,145,32
-ptx_opcode_latency_fp           4,4,4,4,39 # Opcode latencies for single precision floating points <ADD,MAX,MUL,MAD,DIV>Default 1,1,1,1,30
-ptx_opcode_latency_dp      64,64,64,64,330 # Opcode latencies for double precision floating points <ADD,MAX,MUL,MAD,DIV>Default 8,8,8,8,335
-ptx_opcode_latency_sfu                   21 # Opcode latencies for SFU instructionsDefault 8
-ptx_opcode_latency_tesnor                   64 # Opcode latencies for Tensor instructionsDefault 64
-ptx_opcode_initiation_int            2,2,2,2,2 # Opcode initiation intervals for integers <ADD,MAX,MUL,MAD,DIV,SHFL>Default 1,1,4,4,32,4
-ptx_opcode_initiation_fp            2,2,2,2,4 # Opcode initiation intervals for single precision floating points <ADD,MAX,MUL,MAD,DIV>Default 1,1,1,1,5
-ptx_opcode_initiation_dp      64,64,64,64,130 # Opcode initiation intervals for double precision floating points <ADD,MAX,MUL,MAD,DIV>Default 8,8,8,8,130
-ptx_opcode_initiation_sfu                    8 # Opcode initiation intervals for sfu instructionsDefault 8
-ptx_opcode_initiation_tensor                   64 # Opcode initiation intervals for tensor instructionsDefault 64
-cdp_latency         7200,8000,100,12000,1600 # CDP API latency <cudaStreamCreateWithFlags, cudaGetParameterBufferV2_init_perWarp, cudaGetParameterBufferV2_perKernel, cudaLaunchDeviceV2_init_perWarp, cudaLaunchDevicV2_perKernel>Default 7200,8000,100,12000,1600
-network_mode                           2 # Interconnection network mode
-inter_config_file                   mesh # Interconnection network config file
-icnt_in_buffer_limit                  512 # in_buffer_limit
-icnt_out_buffer_limit                  512 # out_buffer_limit
-icnt_subnets                           2 # subnets
-icnt_arbiter_algo                      1 # arbiter_algo
-icnt_verbose                           0 # inct_verbose
-icnt_grant_cycles                      1 # grant_cycles
-gpgpu_ptx_use_cuobjdump                    1 # Use cuobjdump to extract ptx and sass from binaries
-gpgpu_experimental_lib_support                    0 # Try to extract code from cuda libraries [Broken because of unknown cudaGetExportTable]
-checkpoint_option                      0 #  checkpointing flag (0 = no checkpoint)
-checkpoint_kernel                      1 #  checkpointing during execution of which kernel (1- 1st kernel)
-checkpoint_CTA                         0 #  checkpointing after # of CTA (< less than total CTA)
-resume_option                          0 #  resume flag (0 = no resume)
-resume_kernel                          0 #  Resume from which kernel (1= 1st kernel)
-resume_CTA                             0 #  resume from which CTA 
-checkpoint_CTA_t                       0 #  resume from which CTA 
-checkpoint_insn_Y                      0 #  resume from which CTA 
-gpgpu_ptx_convert_to_ptxplus                    0 # Convert SASS (native ISA) to ptxplus and run ptxplus
-gpgpu_ptx_force_max_capability                   75 # Force maximum compute capability
-gpgpu_ptx_inst_debug_to_file                    0 # Dump executed instructions' debug information to file
-gpgpu_ptx_inst_debug_file       inst_debug.txt # Executed instructions' debug output file
-gpgpu_ptx_inst_debug_thread_uid                    1 # Thread UID for executed instructions' debug output
-gpgpu_simd_model                       1 # 1 = post-dominator
-gpgpu_shader_core_pipeline              1024:32 # shader core pipeline config, i.e., {<nthread>:<warpsize>}
-gpgpu_tex_cache:l1  N:4:128:256,L:R:m:N:L,T:512:8,128:2 # per-shader L1 texture cache  (READ-ONLY) config  {<nsets>:<bsize>:<assoc>,<rep>:<wr>:<alloc>:<wr_alloc>,<mshr>:<N>:<merge>,<mq>:<rf>}
-gpgpu_const_cache:l1 N:128:64:8,L:R:f:N:L,S:2:64,4 # per-shader L1 constant memory cache  (READ-ONLY) config  {<nsets>:<bsize>:<assoc>,<rep>:<wr>:<alloc>:<wr_alloc>,<mshr>:<N>:<merge>,<mq>} 
-gpgpu_cache:il1     N:64:128:16,L:R:f:N:L,S:2:48,4 # shader L1 instruction cache config  {<nsets>:<bsize>:<assoc>,<rep>:<wr>:<alloc>:<wr_alloc>,<mshr>:<N>:<merge>,<mq>} 
-gpgpu_cache:dl1     S:4:128:64,L:T:m:L:L,A:256:32,16:0,32 # per-shader L1 data cache config  {<nsets>:<bsize>:<assoc>,<rep>:<wr>:<alloc>:<wr_alloc>,<mshr>:<N>:<merge>,<mq> | none}
-gpgpu_l1_cache_write_ratio                   25 # L1D write ratio
-gpgpu_l1_banks                         4 # The number of L1 cache banks
-gpgpu_l1_banks_byte_interleaving                   32 # l1 banks byte interleaving granularity
-gpgpu_l1_banks_hashing_function                    0 # l1 banks hashing function
-gpgpu_l1_latency                      32 # L1 Hit Latency
-gpgpu_smem_latency                    30 # smem Latency
-gpgpu_cache:dl1PrefL1                 none # per-shader L1 data cache config  {<nsets>:<bsize>:<assoc>,<rep>:<wr>:<alloc>:<wr_alloc>,<mshr>:<N>:<merge>,<mq> | none}
-gpgpu_cache:dl1PrefShared                 none # per-shader L1 data cache config  {<nsets>:<bsize>:<assoc>,<rep>:<wr>:<alloc>:<wr_alloc>,<mshr>:<N>:<merge>,<mq> | none}
-gpgpu_gmem_skip_L1D                    0 # global memory access skip L1D cache (implements -Xptxas -dlcm=cg, default=no skip)
-gpgpu_perfect_mem                      0 # enable perfect memory mode (no cache miss)
-n_regfile_gating_group                    4 # group of lanes that should be read/written together)
-gpgpu_clock_gated_reg_file                    0 # enable clock gated reg file for power calculations
-gpgpu_clock_gated_lanes                    0 # enable clock gated lanes for power calculations
-gpgpu_shader_registers                65536 # Number of registers per shader core. Limits number of concurrent CTAs. (default 8192)
-gpgpu_registers_per_block                65536 # Maximum number of registers per CTA. (default 8192)
-gpgpu_ignore_resources_limitation                    0 # gpgpu_ignore_resources_limitation (default 0)
-gpgpu_shader_cta                      16 # Maximum number of concurrent CTAs in shader (default 32)
-gpgpu_num_cta_barriers                   16 # Maximum number of named barriers per CTA (default 16)
-gpgpu_n_clusters                      30 # number of processing clusters
-gpgpu_n_cores_per_cluster                    1 # number of simd cores per cluster
-gpgpu_n_cluster_ejection_buffer_size                   32 # number of packets in ejection buffer
-gpgpu_n_ldst_response_buffer_size                    2 # number of response packets in ld/st unit ejection buffer
-gpgpu_shmem_per_block                49152 # Size of shared memory per thread block or CTA (default 48kB)
-gpgpu_shmem_size                   65536 # Size of shared memory per shader core (default 16kB)
-gpgpu_shmem_option                 32,64 # Option list of shared memory sizes
-gpgpu_unified_l1d_size                   96 # Size of unified data cache(L1D + shared memory) in KB
-gpgpu_adaptive_cache_config                    1 # adaptive_cache_config
-gpgpu_shmem_sizeDefault                65536 # Size of shared memory per shader core (default 16kB)
-gpgpu_shmem_size_PrefL1                16384 # Size of shared memory per shader core (default 16kB)
-gpgpu_shmem_size_PrefShared                16384 # Size of shared memory per shader core (default 16kB)
-gpgpu_shmem_num_banks                   32 # Number of banks in the shared memory in each shader core (default 16)
-gpgpu_shmem_limited_broadcast                    0 # Limit shared memory to do one broadcast per cycle (default on)
-gpgpu_shmem_warp_parts                    1 # Number of portions a warp is divided into for shared memory bank conflict check 
-gpgpu_mem_unit_ports                    1 # The number of memory transactions allowed per core cycle
-gpgpu_shmem_warp_parts                    1 # Number of portions a warp is divided into for shared memory bank conflict check 
-gpgpu_warpdistro_shader                   -1 # Specify which shader core to collect the warp size distribution from
-gpgpu_warp_issue_shader                    0 # Specify which shader core to collect the warp issue distribution from
-gpgpu_local_mem_map                    1 # Mapping from local memory space address to simulated GPU physical address space (default = enabled)
-gpgpu_num_reg_banks                    8 # Number of register banks (default = 8)
-gpgpu_reg_bank_use_warp_id                    0 # Use warp ID in mapping registers to banks (default = off)
-gpgpu_sub_core_model                    1 # Sub Core Volta/Pascal model (default = off)
-gpgpu_enable_specialized_operand_collector                    0 # enable_specialized_operand_collector
-gpgpu_operand_collector_num_units_sp                    4 # number of collector units (default = 4)
-gpgpu_operand_collector_num_units_dp                    0 # number of collector units (default = 0)
-gpgpu_operand_collector_num_units_sfu                    4 # number of collector units (default = 4)
-gpgpu_operand_collector_num_units_int                    0 # number of collector units (default = 0)
-gpgpu_operand_collector_num_units_tensor_core                    4 # number of collector units (default = 4)
-gpgpu_operand_collector_num_units_mem                    2 # number of collector units (default = 2)
-gpgpu_operand_collector_num_units_gen                    8 # number of collector units (default = 0)
-gpgpu_operand_collector_num_in_ports_sp                    1 # number of collector unit in ports (default = 1)
-gpgpu_operand_collector_num_in_ports_dp                    0 # number of collector unit in ports (default = 0)
-gpgpu_operand_collector_num_in_ports_sfu                    1 # number of collector unit in ports (default = 1)
-gpgpu_operand_collector_num_in_ports_int                    0 # number of collector unit in ports (default = 0)
-gpgpu_operand_collector_num_in_ports_tensor_core                    1 # number of collector unit in ports (default = 1)
-gpgpu_operand_collector_num_in_ports_mem                    1 # number of collector unit in ports (default = 1)
-gpgpu_operand_collector_num_in_ports_gen                    8 # number of collector unit in ports (default = 0)
-gpgpu_operand_collector_num_out_ports_sp                    1 # number of collector unit in ports (default = 1)
-gpgpu_operand_collector_num_out_ports_dp                    0 # number of collector unit in ports (default = 0)
-gpgpu_operand_collector_num_out_ports_sfu                    1 # number of collector unit in ports (default = 1)
-gpgpu_operand_collector_num_out_ports_int                    0 # number of collector unit in ports (default = 0)
-gpgpu_operand_collector_num_out_ports_tensor_core                    1 # number of collector unit in ports (default = 1)
-gpgpu_operand_collector_num_out_ports_mem                    1 # number of collector unit in ports (default = 1)
-gpgpu_operand_collector_num_out_ports_gen                    8 # number of collector unit in ports (default = 0)
-gpgpu_coalesce_arch                   75 # Coalescing arch (GT200 = 13, Fermi = 20)
-gpgpu_num_sched_per_core                    4 # Number of warp schedulers per core
-gpgpu_max_insn_issue_per_warp                    1 # Max number of instructions that can be issued per warp in one cycle by scheduler (either 1 or 2)
-gpgpu_dual_issue_diff_exec_units                    1 # should dual issue use two different execution unit resources (Default = 1)
-gpgpu_simt_core_sim_order                    1 # Select the simulation order of cores in a cluster (0=Fix, 1=Round-Robin)
-gpgpu_pipeline_widths 4,4,4,4,4,4,4,4,4,4,8,4,4 # Pipeline widths ID_OC_SP,ID_OC_DP,ID_OC_INT,ID_OC_SFU,ID_OC_MEM,OC_EX_SP,OC_EX_DP,OC_EX_INT,OC_EX_SFU,OC_EX_MEM,EX_WB,ID_OC_TENSOR_CORE,OC_EX_TENSOR_CORE
-gpgpu_tensor_core_avail                    1 # Tensor Core Available (default=0)
-gpgpu_num_sp_units                     4 # Number of SP units (default=1)
-gpgpu_num_dp_units                     4 # Number of DP units (default=0)
-gpgpu_num_int_units                    4 # Number of INT units (default=0)
-gpgpu_num_sfu_units                    4 # Number of SF units (default=1)
-gpgpu_num_tensor_core_units                    4 # Number of tensor_core units (default=1)
-gpgpu_num_mem_units                    1 # Number if ldst units (default=1) WARNING: not hooked up to anything
-kernelBased                            1 # Does the approximator work as kernel based (default = 0)
-kernelId                               0 # Kernel ids where the approximation applied 
-hybridApproximation                    0 # Hybrid approximator (default = 0)
-errorPercentage                       50 # Error percentage (number of max flushed accesses)
-l1dApproximator                        0 # Memory access delete unit (default = 0)
-l1dSlicingAccessInterval                 5000 # Slice access window length (default = 1000)
-l2Approximator                         1 # Memory access delete unit (default = 0)
-l2SlicingAccessInterval                 5000 # Slice access window length (default = 1000)
-smOccupancy                            0 # sm occupancy (default = 0)
-smSlicingInterval                   5000 # Slice access window length (default = 1000)
-gpgpu_scheduler                      lrr # Scheduler configuration: < lrr | gto | two_level_active > If two_level_active:<num_active_warps>:<inner_prioritization>:<outer_prioritization>For complete list of prioritization values see shader.h enum scheduler_prioritization_typeDefault: gto
-gpgpu_concurrent_kernel_sm                    0 # Support concurrent kernels on a SM (default = disabled)
-gpgpu_perfect_inst_const_cache                    1 # perfect inst and const cache mode, so all inst and const hits in the cache(default = disabled)
-gpgpu_inst_fetch_throughput                    4 # the number of fetched intruction per warp each cycle
-gpgpu_reg_file_port_throughput                    2 # the number ports of the register file
-specialized_unit_1         0,4,4,4,4,BRA # specialized unit config {<enabled>,<num_units>:<latency>:<initiation>,<ID_OC_SPEC>:<OC_EX_SPEC>,<NAME>}
-specialized_unit_2         0,4,4,4,4,BRA # specialized unit config {<enabled>,<num_units>:<latency>:<initiation>,<ID_OC_SPEC>:<OC_EX_SPEC>,<NAME>}
-specialized_unit_3         0,4,4,4,4,BRA # specialized unit config {<enabled>,<num_units>:<latency>:<initiation>,<ID_OC_SPEC>:<OC_EX_SPEC>,<NAME>}
-specialized_unit_4         0,4,4,4,4,BRA # specialized unit config {<enabled>,<num_units>:<latency>:<initiation>,<ID_OC_SPEC>:<OC_EX_SPEC>,<NAME>}
-specialized_unit_5         0,4,4,4,4,BRA # specialized unit config {<enabled>,<num_units>:<latency>:<initiation>,<ID_OC_SPEC>:<OC_EX_SPEC>,<NAME>}
-specialized_unit_6         0,4,4,4,4,BRA # specialized unit config {<enabled>,<num_units>:<latency>:<initiation>,<ID_OC_SPEC>:<OC_EX_SPEC>,<NAME>}
-specialized_unit_7         0,4,4,4,4,BRA # specialized unit config {<enabled>,<num_units>:<latency>:<initiation>,<ID_OC_SPEC>:<OC_EX_SPEC>,<NAME>}
-specialized_unit_8         0,4,4,4,4,BRA # specialized unit config {<enabled>,<num_units>:<latency>:<initiation>,<ID_OC_SPEC>:<OC_EX_SPEC>,<NAME>}
-gpgpu_perf_sim_memcpy                    1 # Fill the L2 cache on memcpy
-gpgpu_simple_dram_model                    0 # simple_dram_model with fixed latency and BW
-gpgpu_dram_scheduler                    1 # 0 = fifo, 1 = FR-FCFS (defaul)
-gpgpu_dram_partition_queues          64:64:64:64 # i2$:$2d:d2$:$2i
-l2_ideal                               0 # Use a ideal L2 cache that always hit
-gpgpu_cache:dl2     S:64:128:16,L:B:m:L:P,A:192:4,32:0,32 # unified banked L2 data cache config  {<nsets>:<bsize>:<assoc>,<rep>:<wr>:<alloc>:<wr_alloc>,<mshr>:<N>:<merge>,<mq>}
-gpgpu_cache:dl2_texture_only                    0 # L2 cache used for texture only
-gpgpu_n_mem                           12 # number of memory modules (e.g. memory controllers) in gpu
-gpgpu_n_sub_partition_per_mchannel                    2 # number of memory subpartition in each memory module
-gpgpu_n_mem_per_ctrlr                    1 # number of memory chips per memory controller
-gpgpu_memlatency_stat                   14 # track and display latency statistics 0x2 enables MC, 0x4 enables queue logs
-gpgpu_frfcfs_dram_sched_queue_size                   64 # 0 = unlimited (default); # entries per chip
-gpgpu_dram_return_queue_size                  192 # 0 = unlimited (default); # entries per chip
-gpgpu_dram_buswidth                    2 # default = 4 bytes (8 bytes per cycle at DDR)
-gpgpu_dram_burst_length                   16 # Burst length of each DRAM request (default = 4 data bus cycle)
-dram_data_command_freq_ratio                    4 # Frequency ratio between DRAM data bus and command bus (default = 2 times, i.e. DDR)
-gpgpu_dram_timing_opt nbk=16:CCD=4:RRD=12:RCD=24:RAS=55:RP=24:RC=78:CL=24:WL=8:CDLR=10:WR=24:nbkgrp=4:CCDL=6:RTPL=4 # DRAM timing parameters = {nbk:tCCD:tRRD:tRCD:tRAS:tRP:tRC:CL:WL:tCDLR:tWR:nbkgrp:tCCDL:tRTPL}
-gpgpu_l2_rop_latency                  194 # ROP queue latency (default 85)
-dram_latency                          96 # DRAM latency (default 30)
-dram_dual_bus_interface                    0 # dual_bus_interface (default = 0) 
-dram_bnk_indexing_policy                    0 # dram_bnk_indexing_policy (0 = normal indexing, 1 = Xoring with the higher bits) (Default = 0)
-dram_bnkgrp_indexing_policy                    1 # dram_bnkgrp_indexing_policy (0 = take higher bits, 1 = take lower bits) (Default = 0)
-dram_seperate_write_queue_enable                    0 # Seperate_Write_Queue_Enable
-dram_write_queue_size             32:28:16 # Write_Queue_Size
-dram_elimnate_rw_turnaround                    0 # elimnate_rw_turnaround i.e set tWTR and tRTW = 0
-icnt_flit_size                        40 # icnt_flit_size
-icnt_flit_size                        40 # icnt_flit_size
-mem_profiler                           0 # memory access runtime profiling (0 = not enabled)
-gpgpu_mem_addr_mapping dramid@8;00000000.00000000.00000000.00000000.0000RRRR.RRRRRRRR.RBBBCCCC.BCCSSSSS # mapping memory address to dram model {dramid@<start bit>;<memory address map>}
-gpgpu_mem_addr_test                    0 # run sweep test to check address mapping for aliased address
-gpgpu_mem_address_mask                    1 # 0 = old addressing mask, 1 = new addressing mask, 2 = new add. mask + flipped bank sel and chip sel bits
-gpgpu_memory_partition_indexing                    0 # 0 = no indexing, 1 = bitwise xoring, 2 = IPoly, 3 = custom indexing
-accelwattch_xml_file accelwattch_sass_sim.xml # AccelWattch XML file
-power_simulation_enabled                    1 # Turn on power simulator (1=On, 0=Off)
-power_per_cycle_dump                    1 # Dump detailed power output each cycle
-hw_perf_file_name            hw_perf.csv # Hardware Performance Statistics file
-hw_perf_bench_name    hw_perf_bench_name # Kernel Name in Hardware Performance Statistics file
-power_simulation_mode                    0 # Switch performance counter input for power simulation (0=Sim, 1=HW, 2=HW-Sim Hybrid)
-dvfs_enabled                           1 # Turn on DVFS for power model
-aggregate_power_stats                    0 # Accumulate power across all kernels
-accelwattch_hybrid_perfsim_L1_RH                    0 # Get L1 Read Hits for Accelwattch-Hybrid from Accel-Sim
-accelwattch_hybrid_perfsim_L1_RM                    0 # Get L1 Read Misses for Accelwattch-Hybrid from Accel-Sim
-accelwattch_hybrid_perfsim_L1_WH                    0 # Get L1 Write Hits for Accelwattch-Hybrid from Accel-Sim
-accelwattch_hybrid_perfsim_L1_WM                    0 # Get L1 Write Misses for Accelwattch-Hybrid from Accel-Sim
-accelwattch_hybrid_perfsim_L2_RH                    0 # Get L2 Read Hits for Accelwattch-Hybrid from Accel-Sim
-accelwattch_hybrid_perfsim_L2_RM                    0 # Get L2 Read Misses for Accelwattch-Hybrid from Accel-Sim
-accelwattch_hybrid_perfsim_L2_WH                    0 # Get L2 Write Hits for Accelwattch-Hybrid from Accel-Sim
-accelwattch_hybrid_perfsim_L2_WM                    0 # Get L2 Write Misses for Accelwattch-Hybrid from Accel-Sim
-accelwattch_hybrid_perfsim_CC_ACC                    0 # Get Constant Cache Acesses for Accelwattch-Hybrid from Accel-Sim
-accelwattch_hybrid_perfsim_SHARED_ACC                    0 # Get Shared Memory Acesses for Accelwattch-Hybrid from Accel-Sim
-accelwattch_hybrid_perfsim_DRAM_RD                    0 # Get DRAM Reads for Accelwattch-Hybrid from Accel-Sim
-accelwattch_hybrid_perfsim_DRAM_WR                    0 # Get DRAM Writes for Accelwattch-Hybrid from Accel-Sim
-accelwattch_hybrid_perfsim_NOC                    0 # Get Interconnect Acesses for Accelwattch-Hybrid from Accel-Sim
-accelwattch_hybrid_perfsim_PIPE_DUTY                    0 # Get Pipeline Duty Cycle Acesses for Accelwattch-Hybrid from Accel-Sim
-accelwattch_hybrid_perfsim_NUM_SM_IDLE                    0 # Get Number of Idle SMs for Accelwattch-Hybrid from Accel-Sim
-accelwattch_hybrid_perfsim_CYCLES                    0 # Get Executed Cycles for Accelwattch-Hybrid from Accel-Sim
-accelwattch_hybrid_perfsim_VOLTAGE                    0 # Get Chip Voltage for Accelwattch-Hybrid from Accel-Sim
-power_trace_enabled                    0 # produce a file for the power trace (1=On, 0=Off)
-power_trace_zlevel                     0 # Compression level of the power trace output log (0=no comp, 9=highest)
-steady_power_levels_enabled                    0 # produce a file for the steady power levels (1=On, 0=Off)
-steady_state_definition                  8:4 # allowed deviation:number of samples
-gpgpu_max_cycle                        0 # terminates gpu simulation early (0 = no limit)
-gpgpu_max_insn                         0 # terminates gpu simulation early (0 = no limit)
-gpgpu_max_cta                          0 # terminates gpu simulation early (0 = no limit)
-gpgpu_max_completed_cta                    0 # terminates gpu simulation early (0 = no limit)
-gpgpu_runtime_stat                  1000 # display runtime statistics such as dram utilization {<freq>:<flag>}
-liveness_message_freq                    1 # Minimum number of seconds between simulation liveness messages (0 = always print)
-gpgpu_compute_capability_major                    7 # Major compute capability version number
-gpgpu_compute_capability_minor                    5 # Minor compute capability version number
-gpgpu_flush_l1_cache                    1 # Flush L1 cache at the end of each kernel call
-gpgpu_flush_l2_cache                    0 # Flush L2 cache at the end of each kernel call
-gpgpu_deadlock_detect                    1 # Stop the simulation at deadlock (1=on (default), 0=off)
-gpgpu_ptx_instruction_classification                    0 # if enabled will classify ptx instruction types per kernel (Max 255 kernels now)
-gpgpu_ptx_sim_mode                     0 # Select between Performance (default) or Functional simulation (1)
-gpgpu_clock_domains 1365:1365:1365:3500.5 # Clock Domain Frequencies in MhZ {<Core Clock>:<ICNT Clock>:<L2 Clock>:<DRAM Clock>}
-gpgpu_max_concurrent_kernel                  128 # maximum kernels that can run concurrently on GPU, set this value according to max resident grids for your compute capability
-gpgpu_cflog_interval                    0 # Interval between each snapshot in control flow logger
-visualizer_enabled                     0 # Turn on visualizer output (1=On, 0=Off)
-visualizer_outputfile                 NULL # Specifies the output log file for visualizer
-visualizer_zlevel                      6 # Compression level of the visualizer output log (0=no comp, 9=highest)
-gpgpu_stack_size_limit                 1024 # GPU thread stack size
-gpgpu_heap_size_limit              8388608 # GPU malloc heap size 
-gpgpu_runtime_sync_depth_limit                    2 # GPU device runtime synchronize depth
-gpgpu_runtime_pending_launch_count_limit                 2048 # GPU device runtime pending launch count
-trace_enabled                          0 # Turn on traces
-trace_components                    none # comma seperated list of traces to enable. Complete list found in trace_streams.tup. Default none
-trace_sampling_core                    0 # The core which is printed using CORE_DPRINTF. Default 0
-trace_sampling_memory_partition                   -1 # The memory partition which is printed using MEMPART_DPRINTF. Default -1 (i.e. all)
-enable_ptx_file_line_stats                    1 # Turn on PTX source line statistic profiling. (1 = On)
-ptx_line_stats_filename gpgpu_inst_stats.txt # Output file for PTX source line statistics.
-gpgpu_kernel_launch_latency                 5000 # Kernel launch latency in cycles. Default: 0
-gpgpu_cdp_enabled                      0 # Turn on CDP
-gpgpu_TB_launch_latency                    0 # thread block launch latency in cycles. Default: 0
-mem_runtime_stat                     100 # memory access runtime profiling sampling freq
-L1D_metrics                            0 # memory access runtime profiling for L1 data cache
-noncoal_metrics                        0 # memory access runtime profiling for shared memory
-L2_metrics                             0 # memory access runtime profiling for L2 cache
-DRAM_metrics                           0 # memory access runtime profiling for DRAM
-Shmem_metrics                          0 # memory access runtime profiling for noncoalesced accesses
-store_enable                           0 # Enable stores for memory profiling
-accumulate_stats                       0 # Accumulate stats for the memory profiling
-dump_enable                            0 # Process dump enable flag - (def = 0)
-flush_l1d                              0 # Enable flushings for L1D caches - (default = 0)
-flush_l2                               0 # Enable flushings for L2 caches - (default = 0)
-flush_dram                             0 # Enable flushings for DRAM - (default = 0)
-flush_noncoalesceds                    0 # Enable flushings for non coalesced accesses - (default = 0)
-flush_shmems                           0 # Enable flushings for shared memory accesses - (default = 0)
-error_percentage                       2 # Error percentage for the flushes - (default = 1)
-flush_acc_type                         2 # Flush access types
-monitor_sampling_cycle                  200 # Monitoring sampling cycle - (default = 5000)
DRAM Timing Options:
nbk                                    16 # number of banks
CCD                                     4 # column to column delay
RRD                                    12 # minimal delay between activation of rows in different banks
RCD                                    24 # row to column delay
RAS                                    55 # time needed to activate row
RP                                     24 # time needed to precharge (deactivate) row
RC                                     78 # row cycle time
CDLR                                   10 # switching from write to read (changes tWTR)
WR                                     24 # last data-in to row precharge
CL                                     24 # CAS latency
WL                                      8 # Write latency
nbkgrp                                  4 # number of bank groups
CCDL                                    6 # column to column delay between accesses to different bank groups
RTPL                                    4 # read to precharge delay between accesses to different bank groups
Total number of memory sub partition = 24
addr_dec_mask[CHIP]  = 0000000000000000 	high:64 low:0
addr_dec_mask[BK]    = 0000000000007080 	high:15 low:7
addr_dec_mask[ROW]   = 000000000fff8000 	high:28 low:15
addr_dec_mask[COL]   = 0000000000000f7f 	high:12 low:0
addr_dec_mask[BURST] = 000000000000001f 	high:5 low:0
sub_partition_id_mask = 0000000000000080
GPGPU-Sim uArch: clock freqs: 1365000000.000000:1365000000.000000:1365000000.000000:3500500000.000000
GPGPU-Sim uArch: clock periods: 0.00000000073260073260:0.00000000073260073260:0.00000000073260073260:0.00000000028567347522
*** Initializing Memory Statistics ***
--------------------------------------------------------------
L2 access stats (for 0'th subPartition) 
--	Kid = 0 || L2 Acc = 95374, -- Miss = 9847, rate = 0.1032, -- PendHits = 11, rate = 0.0001-- ResFail = 0, rate = 0.0000
Error Per = 50 || Flushes = 196 || slicingInterval = 5000
--	Kid = 1 || L2 Acc = 737, -- Miss = 4, rate = 0.0054, -- PendHits = 0, rate = 0.0000-- ResFail = 0, rate = 0.0000
Error Per = 50 || Flushes = 0 || slicingInterval = 5000
--	Kid = 2 || L2 Acc = 94255, -- Miss = 10221, rate = 0.1084, -- PendHits = 22, rate = 0.0002-- ResFail = 0, rate = 0.0000
Error Per = 50 || Flushes = 204 || slicingInterval = 5000
--	Kid = 3 || L2 Acc = 176, -- Miss = 0, rate = 0.0000, -- PendHits = 0, rate = 0.0000-- ResFail = 0, rate = 0.0000
Error Per = 50 || Flushes = 0 || slicingInterval = 5000
--	Kid = 4 || L2 Acc = 93971, -- Miss = 10361, rate = 0.1103, -- PendHits = 25, rate = 0.0003-- ResFail = 0, rate = 0.0000
Error Per = 50 || Flushes = 207 || slicingInterval = 5000
--	Kid = 5 || L2 Acc = 120, -- Miss = 4, rate = 0.0333, -- PendHits = 0, rate = 0.0000-- ResFail = 0, rate = 0.0000
Error Per = 50 || Flushes = 0 || slicingInterval = 5000
--------------------------------------------------------------
L2 access stats (for 1'th subPartition) 
--	Kid = 0 || L2 Acc = 96598, -- Miss = 9530, rate = 0.0987, -- PendHits = 0, rate = 0.0000-- ResFail = 0, rate = 0.0000
Error Per = 50 || Flushes = 190 || slicingInterval = 5000
--	Kid = 1 || L2 Acc = 734, -- Miss = 4, rate = 0.0054, -- PendHits = 0, rate = 0.0000-- ResFail = 0, rate = 0.0000
Error Per = 50 || Flushes = 0 || slicingInterval = 5000
--	Kid = 2 || L2 Acc = 94736, -- Miss = 9983, rate = 0.1054, -- PendHits = 1, rate = 0.0000-- ResFail = 0, rate = 0.0000
Error Per = 50 || Flushes = 199 || slicingInterval = 5000
--	Kid = 3 || L2 Acc = 153, -- Miss = 0, rate = 0.0000, -- PendHits = 0, rate = 0.0000-- ResFail = 0, rate = 0.0000
Error Per = 50 || Flushes = 0 || slicingInterval = 5000
--	Kid = 4 || L2 Acc = 95242, -- Miss = 10140, rate = 0.1065, -- PendHits = 1, rate = 0.0000-- ResFail = 788, rate = 0.0083
Error Per = 50 || Flushes = 202 || slicingInterval = 5000
--	Kid = 5 || L2 Acc = 120, -- Miss = 5, rate = 0.0417, -- PendHits = 0, rate = 0.0000-- ResFail = 0, rate = 0.0000
Error Per = 50 || Flushes = 0 || slicingInterval = 5000
--------------------------------------------------------------
L2 access stats (for 2'th subPartition) 
--	Kid = 0 || L2 Acc = 97736, -- Miss = 10263, rate = 0.1050, -- PendHits = 2, rate = 0.0000-- ResFail = 0, rate = 0.0000
Error Per = 50 || Flushes = 205 || slicingInterval = 5000
--	Kid = 1 || L2 Acc = 740, -- Miss = 4, rate = 0.0054, -- PendHits = 0, rate = 0.0000-- ResFail = 0, rate = 0.0000
Error Per = 50 || Flushes = 0 || slicingInterval = 5000
--	Kid = 2 || L2 Acc = 97374, -- Miss = 10561, rate = 0.1085, -- PendHits = 3, rate = 0.0000-- ResFail = 0, rate = 0.0000
Error Per = 50 || Flushes = 211 || slicingInterval = 5000
--	Kid = 3 || L2 Acc = 157, -- Miss = 0, rate = 0.0000, -- PendHits = 0, rate = 0.0000-- ResFail = 0, rate = 0.0000
Error Per = 50 || Flushes = 0 || slicingInterval = 5000
--	Kid = 4 || L2 Acc = 96545, -- Miss = 10767, rate = 0.1115, -- PendHits = 3, rate = 0.0000-- ResFail = 0, rate = 0.0000
Error Per = 50 || Flushes = 215 || slicingInterval = 5000
--	Kid = 5 || L2 Acc = 120, -- Miss = 4, rate = 0.0333, -- PendHits = 0, rate = 0.0000-- ResFail = 0, rate = 0.0000
Error Per = 50 || Flushes = 0 || slicingInterval = 5000
--------------------------------------------------------------
L2 access stats (for 3'th subPartition) 
--	Kid = 0 || L2 Acc = 95396, -- Miss = 10444, rate = 0.1095, -- PendHits = 0, rate = 0.0000-- ResFail = 0, rate = 0.0000
Error Per = 50 || Flushes = 208 || slicingInterval = 5000
--	Kid = 1 || L2 Acc = 763, -- Miss = 4, rate = 0.0052, -- PendHits = 0, rate = 0.0000-- ResFail = 0, rate = 0.0000
Error Per = 50 || Flushes = 0 || slicingInterval = 5000
--	Kid = 2 || L2 Acc = 94591, -- Miss = 10575, rate = 0.1118, -- PendHits = 2, rate = 0.0000-- ResFail = 0, rate = 0.0000
Error Per = 50 || Flushes = 211 || slicingInterval = 5000
--	Kid = 3 || L2 Acc = 156, -- Miss = 0, rate = 0.0000, -- PendHits = 0, rate = 0.0000-- ResFail = 0, rate = 0.0000
Error Per = 50 || Flushes = 0 || slicingInterval = 5000
--	Kid = 4 || L2 Acc = 94613, -- Miss = 10870, rate = 0.1149, -- PendHits = 2, rate = 0.0000-- ResFail = 0, rate = 0.0000
Error Per = 50 || Flushes = 217 || slicingInterval = 5000
--	Kid = 5 || L2 Acc = 120, -- Miss = 4, rate = 0.0333, -- PendHits = 0, rate = 0.0000-- ResFail = 0, rate = 0.0000
Error Per = 50 || Flushes = 0 || slicingInterval = 5000
--------------------------------------------------------------
L2 access stats (for 4'th subPartition) 
--	Kid = 0 || L2 Acc = 95661, -- Miss = 10072, rate = 0.1053, -- PendHits = 3, rate = 0.0000-- ResFail = 0, rate = 0.0000
Error Per = 50 || Flushes = 201 || slicingInterval = 5000
--	Kid = 1 || L2 Acc = 723, -- Miss = 0, rate = 0.0000, -- PendHits = 0, rate = 0.0000-- ResFail = 0, rate = 0.0000
Error Per = 50 || Flushes = 0 || slicingInterval = 5000
--	Kid = 2 || L2 Acc = 94231, -- Miss = 10375, rate = 0.1101, -- PendHits = 4, rate = 0.0000-- ResFail = 0, rate = 0.0000
Error Per = 50 || Flushes = 207 || slicingInterval = 5000
--	Kid = 3 || L2 Acc = 164, -- Miss = 2, rate = 0.0122, -- PendHits = 0, rate = 0.0000-- ResFail = 0, rate = 0.0000
Error Per = 50 || Flushes = 0 || slicingInterval = 5000
--	Kid = 4 || L2 Acc = 94452, -- Miss = 10624, rate = 0.1125, -- PendHits = 4, rate = 0.0000-- ResFail = 0, rate = 0.0000
Error Per = 50 || Flushes = 212 || slicingInterval = 5000
--	Kid = 5 || L2 Acc = 120, -- Miss = 6, rate = 0.0500, -- PendHits = 0, rate = 0.0000-- ResFail = 0, rate = 0.0000
Error Per = 50 || Flushes = 0 || slicingInterval = 5000
--------------------------------------------------------------
L2 access stats (for 5'th subPartition) 
--	Kid = 0 || L2 Acc = 95812, -- Miss = 10028, rate = 0.1047, -- PendHits = 1, rate = 0.0000-- ResFail = 0, rate = 0.0000
Error Per = 50 || Flushes = 200 || slicingInterval = 5000
--	Kid = 1 || L2 Acc = 730, -- Miss = 0, rate = 0.0000, -- PendHits = 0, rate = 0.0000-- ResFail = 0, rate = 0.0000
Error Per = 50 || Flushes = 0 || slicingInterval = 5000
--	Kid = 2 || L2 Acc = 95264, -- Miss = 10303, rate = 0.1082, -- PendHits = 0, rate = 0.0000-- ResFail = 0, rate = 0.0000
Error Per = 50 || Flushes = 206 || slicingInterval = 5000
--	Kid = 3 || L2 Acc = 155, -- Miss = 1, rate = 0.0065, -- PendHits = 0, rate = 0.0000-- ResFail = 0, rate = 0.0000
Error Per = 50 || Flushes = 0 || slicingInterval = 5000
--	Kid = 4 || L2 Acc = 95795, -- Miss = 10508, rate = 0.1097, -- PendHits = 0, rate = 0.0000-- ResFail = 0, rate = 0.0000
Error Per = 50 || Flushes = 210 || slicingInterval = 5000
--	Kid = 5 || L2 Acc = 120, -- Miss = 1, rate = 0.0083, -- PendHits = 0, rate = 0.0000-- ResFail = 0, rate = 0.0000
Error Per = 50 || Flushes = 0 || slicingInterval = 5000
--------------------------------------------------------------
L2 access stats (for 6'th subPartition) 
--	Kid = 0 || L2 Acc = 96583, -- Miss = 9862, rate = 0.1021, -- PendHits = 0, rate = 0.0000-- ResFail = 0, rate = 0.0000
Error Per = 50 || Flushes = 197 || slicingInterval = 5000
--	Kid = 1 || L2 Acc = 720, -- Miss = 4, rate = 0.0056, -- PendHits = 0, rate = 0.0000-- ResFail = 0, rate = 0.0000
Error Per = 50 || Flushes = 0 || slicingInterval = 5000
--	Kid = 2 || L2 Acc = 96495, -- Miss = 10283, rate = 0.1066, -- PendHits = 0, rate = 0.0000-- ResFail = 0, rate = 0.0000
Error Per = 50 || Flushes = 205 || slicingInterval = 5000
--	Kid = 3 || L2 Acc = 151, -- Miss = 0, rate = 0.0000, -- PendHits = 0, rate = 0.0000-- ResFail = 0, rate = 0.0000
Error Per = 50 || Flushes = 0 || slicingInterval = 5000
--	Kid = 4 || L2 Acc = 94658, -- Miss = 10500, rate = 0.1109, -- PendHits = 0, rate = 0.0000-- ResFail = 0, rate = 0.0000
Error Per = 50 || Flushes = 210 || slicingInterval = 5000
--	Kid = 5 || L2 Acc = 120, -- Miss = 4, rate = 0.0333, -- PendHits = 0, rate = 0.0000-- ResFail = 0, rate = 0.0000
Error Per = 50 || Flushes = 0 || slicingInterval = 5000
--------------------------------------------------------------
L2 access stats (for 7'th subPartition) 
--	Kid = 0 || L2 Acc = 98567, -- Miss = 10151, rate = 0.1030, -- PendHits = 4, rate = 0.0000-- ResFail = 0, rate = 0.0000
Error Per = 50 || Flushes = 203 || slicingInterval = 5000
--	Kid = 1 || L2 Acc = 694, -- Miss = 0, rate = 0.0000, -- PendHits = 0, rate = 0.0000-- ResFail = 0, rate = 0.0000
Error Per = 50 || Flushes = 0 || slicingInterval = 5000
--	Kid = 2 || L2 Acc = 96169, -- Miss = 10294, rate = 0.1070, -- PendHits = 0, rate = 0.0000-- ResFail = 0, rate = 0.0000
Error Per = 50 || Flushes = 205 || slicingInterval = 5000
--	Kid = 3 || L2 Acc = 152, -- Miss = 0, rate = 0.0000, -- PendHits = 0, rate = 0.0000-- ResFail = 0, rate = 0.0000
Error Per = 50 || Flushes = 0 || slicingInterval = 5000
--	Kid = 4 || L2 Acc = 96508, -- Miss = 10451, rate = 0.1083, -- PendHits = 1, rate = 0.0000-- ResFail = 0, rate = 0.0000
Error Per = 50 || Flushes = 209 || slicingInterval = 5000
--	Kid = 5 || L2 Acc = 120, -- Miss = 0, rate = 0.0000, -- PendHits = 0, rate = 0.0000-- ResFail = 0, rate = 0.0000
Error Per = 50 || Flushes = 0 || slicingInterval = 5000
--------------------------------------------------------------
L2 access stats (for 8'th subPartition) 
--	Kid = 0 || L2 Acc = 97785, -- Miss = 10594, rate = 0.1083, -- PendHits = 11, rate = 0.0001-- ResFail = 0, rate = 0.0000
Error Per = 50 || Flushes = 211 || slicingInterval = 5000
--	Kid = 1 || L2 Acc = 690, -- Miss = 2, rate = 0.0029, -- PendHits = 0, rate = 0.0000-- ResFail = 0, rate = 0.0000
Error Per = 50 || Flushes = 0 || slicingInterval = 5000
--	Kid = 2 || L2 Acc = 95927, -- Miss = 10968, rate = 0.1143, -- PendHits = 23, rate = 0.0002-- ResFail = 0, rate = 0.0000
Error Per = 50 || Flushes = 219 || slicingInterval = 5000
--	Kid = 3 || L2 Acc = 149, -- Miss = 1, rate = 0.0067, -- PendHits = 0, rate = 0.0000-- ResFail = 0, rate = 0.0000
Error Per = 50 || Flushes = 0 || slicingInterval = 5000
--	Kid = 4 || L2 Acc = 95984, -- Miss = 11230, rate = 0.1170, -- PendHits = 18, rate = 0.0002-- ResFail = 0, rate = 0.0000
Error Per = 50 || Flushes = 224 || slicingInterval = 5000
--	Kid = 5 || L2 Acc = 120, -- Miss = 1, rate = 0.0083, -- PendHits = 0, rate = 0.0000-- ResFail = 0, rate = 0.0000
Error Per = 50 || Flushes = 0 || slicingInterval = 5000
--------------------------------------------------------------
L2 access stats (for 9'th subPartition) 
--	Kid = 0 || L2 Acc = 98187, -- Miss = 10218, rate = 0.1041, -- PendHits = 0, rate = 0.0000-- ResFail = 0, rate = 0.0000
Error Per = 50 || Flushes = 204 || slicingInterval = 5000
--	Kid = 1 || L2 Acc = 693, -- Miss = 0, rate = 0.0000, -- PendHits = 0, rate = 0.0000-- ResFail = 0, rate = 0.0000
Error Per = 50 || Flushes = 0 || slicingInterval = 5000
--	Kid = 2 || L2 Acc = 96864, -- Miss = 10576, rate = 0.1092, -- PendHits = 2, rate = 0.0000-- ResFail = 0, rate = 0.0000
Error Per = 50 || Flushes = 211 || slicingInterval = 5000
--	Kid = 3 || L2 Acc = 156, -- Miss = 0, rate = 0.0000, -- PendHits = 0, rate = 0.0000-- ResFail = 0, rate = 0.0000
Error Per = 50 || Flushes = 0 || slicingInterval = 5000
--	Kid = 4 || L2 Acc = 97161, -- Miss = 10883, rate = 0.1120, -- PendHits = 1, rate = 0.0000-- ResFail = 0, rate = 0.0000
Error Per = 50 || Flushes = 217 || slicingInterval = 5000
--	Kid = 5 || L2 Acc = 119, -- Miss = 1, rate = 0.0084, -- PendHits = 0, rate = 0.0000-- ResFail = 0, rate = 0.0000
Error Per = 50 || Flushes = 0 || slicingInterval = 5000
--------------------------------------------------------------
L2 access stats (for 10'th subPartition) 
--	Kid = 0 || L2 Acc = 97266, -- Miss = 9657, rate = 0.0993, -- PendHits = 0, rate = 0.0000-- ResFail = 0, rate = 0.0000
Error Per = 50 || Flushes = 193 || slicingInterval = 5000
--	Kid = 1 || L2 Acc = 700, -- Miss = 0, rate = 0.0000, -- PendHits = 0, rate = 0.0000-- ResFail = 0, rate = 0.0000
Error Per = 50 || Flushes = 0 || slicingInterval = 5000
--	Kid = 2 || L2 Acc = 94364, -- Miss = 10185, rate = 0.1079, -- PendHits = 0, rate = 0.0000-- ResFail = 0, rate = 0.0000
Error Per = 50 || Flushes = 203 || slicingInterval = 5000
--	Kid = 3 || L2 Acc = 134, -- Miss = 1, rate = 0.0075, -- PendHits = 0, rate = 0.0000-- ResFail = 0, rate = 0.0000
Error Per = 50 || Flushes = 0 || slicingInterval = 5000
--	Kid = 4 || L2 Acc = 93531, -- Miss = 10297, rate = 0.1101, -- PendHits = 0, rate = 0.0000-- ResFail = 0, rate = 0.0000
Error Per = 50 || Flushes = 205 || slicingInterval = 5000
--	Kid = 5 || L2 Acc = 116, -- Miss = 1, rate = 0.0086, -- PendHits = 0, rate = 0.0000-- ResFail = 0, rate = 0.0000
Error Per = 50 || Flushes = 0 || slicingInterval = 5000
--------------------------------------------------------------
L2 access stats (for 11'th subPartition) 
--	Kid = 0 || L2 Acc = 94408, -- Miss = 9607, rate = 0.1018, -- PendHits = 0, rate = 0.0000-- ResFail = 0, rate = 0.0000
Error Per = 50 || Flushes = 192 || slicingInterval = 5000
--	Kid = 1 || L2 Acc = 668, -- Miss = 0, rate = 0.0000, -- PendHits = 0, rate = 0.0000-- ResFail = 0, rate = 0.0000
Error Per = 50 || Flushes = 0 || slicingInterval = 5000
--	Kid = 2 || L2 Acc = 93792, -- Miss = 9933, rate = 0.1059, -- PendHits = 0, rate = 0.0000-- ResFail = 0, rate = 0.0000
Error Per = 50 || Flushes = 198 || slicingInterval = 5000
--	Kid = 3 || L2 Acc = 155, -- Miss = 0, rate = 0.0000, -- PendHits = 0, rate = 0.0000-- ResFail = 0, rate = 0.0000
Error Per = 50 || Flushes = 0 || slicingInterval = 5000
--	Kid = 4 || L2 Acc = 93941, -- Miss = 10067, rate = 0.1072, -- PendHits = 1, rate = 0.0000-- ResFail = 0, rate = 0.0000
Error Per = 50 || Flushes = 201 || slicingInterval = 5000
--	Kid = 5 || L2 Acc = 116, -- Miss = 0, rate = 0.0000, -- PendHits = 0, rate = 0.0000-- ResFail = 0, rate = 0.0000
Error Per = 50 || Flushes = 0 || slicingInterval = 5000
--------------------------------------------------------------
L2 access stats (for 12'th subPartition) 
--	Kid = 0 || L2 Acc = 94514, -- Miss = 11477, rate = 0.1214, -- PendHits = 3, rate = 0.0000-- ResFail = 0, rate = 0.0000
Error Per = 50 || Flushes = 229 || slicingInterval = 5000
--	Kid = 1 || L2 Acc = 686, -- Miss = 0, rate = 0.0000, -- PendHits = 0, rate = 0.0000-- ResFail = 0, rate = 0.0000
Error Per = 50 || Flushes = 0 || slicingInterval = 5000
--	Kid = 2 || L2 Acc = 93534, -- Miss = 11605, rate = 0.1241, -- PendHits = 3, rate = 0.0000-- ResFail = 86, rate = 0.0009
Error Per = 50 || Flushes = 232 || slicingInterval = 5000
--	Kid = 3 || L2 Acc = 148, -- Miss = 0, rate = 0.0000, -- PendHits = 0, rate = 0.0000-- ResFail = 0, rate = 0.0000
Error Per = 50 || Flushes = 0 || slicingInterval = 5000
--	Kid = 4 || L2 Acc = 93650, -- Miss = 11867, rate = 0.1267, -- PendHits = 2, rate = 0.0000-- ResFail = 0, rate = 0.0000
Error Per = 50 || Flushes = 237 || slicingInterval = 5000
--	Kid = 5 || L2 Acc = 116, -- Miss = 0, rate = 0.0000, -- PendHits = 0, rate = 0.0000-- ResFail = 0, rate = 0.0000
Error Per = 50 || Flushes = 0 || slicingInterval = 5000
--------------------------------------------------------------
L2 access stats (for 13'th subPartition) 
--	Kid = 0 || L2 Acc = 97054, -- Miss = 10982, rate = 0.1132, -- PendHits = 2, rate = 0.0000-- ResFail = 0, rate = 0.0000
Error Per = 50 || Flushes = 219 || slicingInterval = 5000
--	Kid = 1 || L2 Acc = 669, -- Miss = 0, rate = 0.0000, -- PendHits = 0, rate = 0.0000-- ResFail = 0, rate = 0.0000
Error Per = 50 || Flushes = 0 || slicingInterval = 5000
--	Kid = 2 || L2 Acc = 95699, -- Miss = 11397, rate = 0.1191, -- PendHits = 12, rate = 0.0001-- ResFail = 232, rate = 0.0024
Error Per = 50 || Flushes = 227 || slicingInterval = 5000
--	Kid = 3 || L2 Acc = 153, -- Miss = 0, rate = 0.0000, -- PendHits = 0, rate = 0.0000-- ResFail = 0, rate = 0.0000
Error Per = 50 || Flushes = 0 || slicingInterval = 5000
--	Kid = 4 || L2 Acc = 96200, -- Miss = 11629, rate = 0.1209, -- PendHits = 2, rate = 0.0000-- ResFail = 4, rate = 0.0000
Error Per = 50 || Flushes = 232 || slicingInterval = 5000
--	Kid = 5 || L2 Acc = 116, -- Miss = 0, rate = 0.0000, -- PendHits = 0, rate = 0.0000-- ResFail = 0, rate = 0.0000
Error Per = 50 || Flushes = 0 || slicingInterval = 5000
--------------------------------------------------------------
L2 access stats (for 14'th subPartition) 
--	Kid = 0 || L2 Acc = 96740, -- Miss = 9838, rate = 0.1017, -- PendHits = 2, rate = 0.0000-- ResFail = 0, rate = 0.0000
Error Per = 50 || Flushes = 196 || slicingInterval = 5000
--	Kid = 1 || L2 Acc = 780, -- Miss = 5, rate = 0.0064, -- PendHits = 0, rate = 0.0000-- ResFail = 0, rate = 0.0000
Error Per = 50 || Flushes = 0 || slicingInterval = 5000
--	Kid = 2 || L2 Acc = 96058, -- Miss = 10238, rate = 0.1066, -- PendHits = 3, rate = 0.0000-- ResFail = 0, rate = 0.0000
Error Per = 50 || Flushes = 204 || slicingInterval = 5000
--	Kid = 3 || L2 Acc = 245, -- Miss = 4, rate = 0.0163, -- PendHits = 0, rate = 0.0000-- ResFail = 0, rate = 0.0000
Error Per = 50 || Flushes = 0 || slicingInterval = 5000
--	Kid = 4 || L2 Acc = 95581, -- Miss = 10413, rate = 0.1089, -- PendHits = 1, rate = 0.0000-- ResFail = 0, rate = 0.0000
Error Per = 50 || Flushes = 208 || slicingInterval = 5000
--	Kid = 5 || L2 Acc = 149, -- Miss = 5, rate = 0.0336, -- PendHits = 0, rate = 0.0000-- ResFail = 0, rate = 0.0000
Error Per = 50 || Flushes = 0 || slicingInterval = 5000
--------------------------------------------------------------
L2 access stats (for 15'th subPartition) 
--	Kid = 0 || L2 Acc = 95330, -- Miss = 9504, rate = 0.0997, -- PendHits = 1, rate = 0.0000-- ResFail = 0, rate = 0.0000
Error Per = 50 || Flushes = 190 || slicingInterval = 5000
--	Kid = 1 || L2 Acc = 784, -- Miss = 4, rate = 0.0051, -- PendHits = 0, rate = 0.0000-- ResFail = 0, rate = 0.0000
Error Per = 50 || Flushes = 0 || slicingInterval = 5000
--	Kid = 2 || L2 Acc = 94862, -- Miss = 9984, rate = 0.1052, -- PendHits = 0, rate = 0.0000-- ResFail = 0, rate = 0.0000
Error Per = 50 || Flushes = 199 || slicingInterval = 5000
--	Kid = 3 || L2 Acc = 174, -- Miss = 0, rate = 0.0000, -- PendHits = 0, rate = 0.0000-- ResFail = 0, rate = 0.0000
Error Per = 50 || Flushes = 0 || slicingInterval = 5000
--	Kid = 4 || L2 Acc = 93723, -- Miss = 10063, rate = 0.1074, -- PendHits = 0, rate = 0.0000-- ResFail = 0, rate = 0.0000
Error Per = 50 || Flushes = 201 || slicingInterval = 5000
--	Kid = 5 || L2 Acc = 120, -- Miss = 4, rate = 0.0333, -- PendHits = 0, rate = 0.0000-- ResFail = 0, rate = 0.0000
Error Per = 50 || Flushes = 0 || slicingInterval = 5000
--------------------------------------------------------------
L2 access stats (for 16'th subPartition) 
--	Kid = 0 || L2 Acc = 97034, -- Miss = 10699, rate = 0.1103, -- PendHits = 20, rate = 0.0002-- ResFail = 0, rate = 0.0000
Error Per = 50 || Flushes = 213 || slicingInterval = 5000
--	Kid = 1 || L2 Acc = 795, -- Miss = 4, rate = 0.0050, -- PendHits = 0, rate = 0.0000-- ResFail = 0, rate = 0.0000
Error Per = 50 || Flushes = 0 || slicingInterval = 5000
--	Kid = 2 || L2 Acc = 95584, -- Miss = 10887, rate = 0.1139, -- PendHits = 21, rate = 0.0002-- ResFail = 0, rate = 0.0000
Error Per = 50 || Flushes = 217 || slicingInterval = 5000
--	Kid = 3 || L2 Acc = 166, -- Miss = 2, rate = 0.0120, -- PendHits = 0, rate = 0.0000-- ResFail = 0, rate = 0.0000
Error Per = 50 || Flushes = 0 || slicingInterval = 5000
--	Kid = 4 || L2 Acc = 94885, -- Miss = 11262, rate = 0.1187, -- PendHits = 16, rate = 0.0002-- ResFail = 0, rate = 0.0000
Error Per = 50 || Flushes = 225 || slicingInterval = 5000
--	Kid = 5 || L2 Acc = 120, -- Miss = 6, rate = 0.0500, -- PendHits = 0, rate = 0.0000-- ResFail = 0, rate = 0.0000
Error Per = 50 || Flushes = 0 || slicingInterval = 5000
--------------------------------------------------------------
L2 access stats (for 17'th subPartition) 
--	Kid = 0 || L2 Acc = 96440, -- Miss = 10172, rate = 0.1055, -- PendHits = 0, rate = 0.0000-- ResFail = 0, rate = 0.0000
Error Per = 50 || Flushes = 203 || slicingInterval = 5000
--	Kid = 1 || L2 Acc = 796, -- Miss = 4, rate = 0.0050, -- PendHits = 0, rate = 0.0000-- ResFail = 0, rate = 0.0000
Error Per = 50 || Flushes = 0 || slicingInterval = 5000
--	Kid = 2 || L2 Acc = 96465, -- Miss = 10551, rate = 0.1094, -- PendHits = 0, rate = 0.0000-- ResFail = 0, rate = 0.0000
Error Per = 50 || Flushes = 211 || slicingInterval = 5000
--	Kid = 3 || L2 Acc = 176, -- Miss = 0, rate = 0.0000, -- PendHits = 0, rate = 0.0000-- ResFail = 0, rate = 0.0000
Error Per = 50 || Flushes = 0 || slicingInterval = 5000
--	Kid = 4 || L2 Acc = 95539, -- Miss = 10666, rate = 0.1116, -- PendHits = 2, rate = 0.0000-- ResFail = 0, rate = 0.0000
Error Per = 50 || Flushes = 213 || slicingInterval = 5000
--	Kid = 5 || L2 Acc = 120, -- Miss = 4, rate = 0.0333, -- PendHits = 0, rate = 0.0000-- ResFail = 0, rate = 0.0000
Error Per = 50 || Flushes = 0 || slicingInterval = 5000
--------------------------------------------------------------
L2 access stats (for 18'th subPartition) 
--	Kid = 0 || L2 Acc = 96210, -- Miss = 10167, rate = 0.1057, -- PendHits = 2, rate = 0.0000-- ResFail = 0, rate = 0.0000
Error Per = 50 || Flushes = 203 || slicingInterval = 5000
--	Kid = 1 || L2 Acc = 823, -- Miss = 4, rate = 0.0049, -- PendHits = 0, rate = 0.0000-- ResFail = 0, rate = 0.0000
Error Per = 50 || Flushes = 0 || slicingInterval = 5000
--	Kid = 2 || L2 Acc = 94769, -- Miss = 10590, rate = 0.1117, -- PendHits = 1, rate = 0.0000-- ResFail = 0, rate = 0.0000
Error Per = 50 || Flushes = 211 || slicingInterval = 5000
--	Kid = 3 || L2 Acc = 160, -- Miss = 0, rate = 0.0000, -- PendHits = 0, rate = 0.0000-- ResFail = 0, rate = 0.0000
Error Per = 50 || Flushes = 0 || slicingInterval = 5000
--	Kid = 4 || L2 Acc = 94020, -- Miss = 10721, rate = 0.1140, -- PendHits = 3, rate = 0.0000-- ResFail = 0, rate = 0.0000
Error Per = 50 || Flushes = 214 || slicingInterval = 5000
--	Kid = 5 || L2 Acc = 120, -- Miss = 4, rate = 0.0333, -- PendHits = 0, rate = 0.0000-- ResFail = 0, rate = 0.0000
Error Per = 50 || Flushes = 0 || slicingInterval = 5000
--------------------------------------------------------------
L2 access stats (for 19'th subPartition) 
--	Kid = 0 || L2 Acc = 96040, -- Miss = 11090, rate = 0.1155, -- PendHits = 3, rate = 0.0000-- ResFail = 0, rate = 0.0000
Error Per = 50 || Flushes = 221 || slicingInterval = 5000
--	Kid = 1 || L2 Acc = 766, -- Miss = 4, rate = 0.0052, -- PendHits = 0, rate = 0.0000-- ResFail = 0, rate = 0.0000
Error Per = 50 || Flushes = 0 || slicingInterval = 5000
--	Kid = 2 || L2 Acc = 95747, -- Miss = 11330, rate = 0.1183, -- PendHits = 4, rate = 0.0000-- ResFail = 0, rate = 0.0000
Error Per = 50 || Flushes = 226 || slicingInterval = 5000
--	Kid = 3 || L2 Acc = 159, -- Miss = 0, rate = 0.0000, -- PendHits = 0, rate = 0.0000-- ResFail = 0, rate = 0.0000
Error Per = 50 || Flushes = 0 || slicingInterval = 5000
--	Kid = 4 || L2 Acc = 95631, -- Miss = 11632, rate = 0.1216, -- PendHits = 7, rate = 0.0001-- ResFail = 0, rate = 0.0000
Error Per = 50 || Flushes = 232 || slicingInterval = 5000
--	Kid = 5 || L2 Acc = 120, -- Miss = 4, rate = 0.0333, -- PendHits = 0, rate = 0.0000-- ResFail = 0, rate = 0.0000
Error Per = 50 || Flushes = 0 || slicingInterval = 5000
--------------------------------------------------------------
L2 access stats (for 20'th subPartition) 
--	Kid = 0 || L2 Acc = 96682, -- Miss = 10073, rate = 0.1042, -- PendHits = 0, rate = 0.0000-- ResFail = 0, rate = 0.0000
Error Per = 50 || Flushes = 201 || slicingInterval = 5000
--	Kid = 1 || L2 Acc = 766, -- Miss = 5, rate = 0.0065, -- PendHits = 0, rate = 0.0000-- ResFail = 0, rate = 0.0000
Error Per = 50 || Flushes = 0 || slicingInterval = 5000
--	Kid = 2 || L2 Acc = 94844, -- Miss = 10409, rate = 0.1097, -- PendHits = 1, rate = 0.0000-- ResFail = 0, rate = 0.0000
Error Per = 50 || Flushes = 208 || slicingInterval = 5000
--	Kid = 3 || L2 Acc = 162, -- Miss = 5, rate = 0.0309, -- PendHits = 0, rate = 0.0000-- ResFail = 0, rate = 0.0000
Error Per = 50 || Flushes = 0 || slicingInterval = 5000
--	Kid = 4 || L2 Acc = 95281, -- Miss = 10688, rate = 0.1122, -- PendHits = 0, rate = 0.0000-- ResFail = 1, rate = 0.0000
Error Per = 50 || Flushes = 213 || slicingInterval = 5000
--	Kid = 5 || L2 Acc = 120, -- Miss = 5, rate = 0.0417, -- PendHits = 0, rate = 0.0000-- ResFail = 0, rate = 0.0000
Error Per = 50 || Flushes = 0 || slicingInterval = 5000
--------------------------------------------------------------
L2 access stats (for 21'th subPartition) 
--	Kid = 0 || L2 Acc = 95205, -- Miss = 9914, rate = 0.1041, -- PendHits = 3, rate = 0.0000-- ResFail = 0, rate = 0.0000
Error Per = 50 || Flushes = 198 || slicingInterval = 5000
--	Kid = 1 || L2 Acc = 773, -- Miss = 5, rate = 0.0065, -- PendHits = 0, rate = 0.0000-- ResFail = 0, rate = 0.0000
Error Per = 50 || Flushes = 0 || slicingInterval = 5000
--	Kid = 2 || L2 Acc = 94264, -- Miss = 10268, rate = 0.1089, -- PendHits = 2, rate = 0.0000-- ResFail = 0, rate = 0.0000
Error Per = 50 || Flushes = 205 || slicingInterval = 5000
--	Kid = 3 || L2 Acc = 150, -- Miss = 5, rate = 0.0333, -- PendHits = 0, rate = 0.0000-- ResFail = 0, rate = 0.0000
Error Per = 50 || Flushes = 0 || slicingInterval = 5000
--	Kid = 4 || L2 Acc = 94825, -- Miss = 10480, rate = 0.1105, -- PendHits = 3, rate = 0.0000-- ResFail = 32, rate = 0.0003
Error Per = 50 || Flushes = 209 || slicingInterval = 5000
--	Kid = 5 || L2 Acc = 120, -- Miss = 5, rate = 0.0417, -- PendHits = 0, rate = 0.0000-- ResFail = 0, rate = 0.0000
Error Per = 50 || Flushes = 0 || slicingInterval = 5000
--------------------------------------------------------------
L2 access stats (for 22'th subPartition) 
--	Kid = 0 || L2 Acc = 95430, -- Miss = 9878, rate = 0.1035, -- PendHits = 0, rate = 0.0000-- ResFail = 0, rate = 0.0000
Error Per = 50 || Flushes = 197 || slicingInterval = 5000
--	Kid = 1 || L2 Acc = 738, -- Miss = 4, rate = 0.0054, -- PendHits = 0, rate = 0.0000-- ResFail = 0, rate = 0.0000
Error Per = 50 || Flushes = 0 || slicingInterval = 5000
--	Kid = 2 || L2 Acc = 94887, -- Miss = 10332, rate = 0.1089, -- PendHits = 1, rate = 0.0000-- ResFail = 0, rate = 0.0000
Error Per = 50 || Flushes = 206 || slicingInterval = 5000
--	Kid = 3 || L2 Acc = 148, -- Miss = 5, rate = 0.0338, -- PendHits = 0, rate = 0.0000-- ResFail = 0, rate = 0.0000
Error Per = 50 || Flushes = 0 || slicingInterval = 5000
--	Kid = 4 || L2 Acc = 94566, -- Miss = 10489, rate = 0.1109, -- PendHits = 0, rate = 0.0000-- ResFail = 0, rate = 0.0000
Error Per = 50 || Flushes = 209 || slicingInterval = 5000
--	Kid = 5 || L2 Acc = 120, -- Miss = 5, rate = 0.0417, -- PendHits = 0, rate = 0.0000-- ResFail = 0, rate = 0.0000
Error Per = 50 || Flushes = 0 || slicingInterval = 5000
--------------------------------------------------------------
L2 access stats (for 23'th subPartition) 
--	Kid = 0 || L2 Acc = 95012, -- Miss = 9295, rate = 0.0978, -- PendHits = 0, rate = 0.0000-- ResFail = 0, rate = 0.0000
Error Per = 50 || Flushes = 185 || slicingInterval = 5000
--	Kid = 1 || L2 Acc = 788, -- Miss = 4, rate = 0.0051, -- PendHits = 0, rate = 0.0000-- ResFail = 0, rate = 0.0000
Error Per = 50 || Flushes = 0 || slicingInterval = 5000
--	Kid = 2 || L2 Acc = 93265, -- Miss = 9732, rate = 0.1043, -- PendHits = 0, rate = 0.0000-- ResFail = 0, rate = 0.0000
Error Per = 50 || Flushes = 194 || slicingInterval = 5000
--	Kid = 3 || L2 Acc = 150, -- Miss = 4, rate = 0.0267, -- PendHits = 0, rate = 0.0000-- ResFail = 0, rate = 0.0000
Error Per = 50 || Flushes = 0 || slicingInterval = 5000
--	Kid = 4 || L2 Acc = 93372, -- Miss = 9790, rate = 0.1048, -- PendHits = 0, rate = 0.0000-- ResFail = 0, rate = 0.0000
Error Per = 50 || Flushes = 195 || slicingInterval = 5000
--	Kid = 5 || L2 Acc = 120, -- Miss = 4, rate = 0.0333, -- PendHits = 0, rate = 0.0000-- ResFail = 0, rate = 0.0000
Error Per = 50 || Flushes = 0 || slicingInterval = 5000
d846cbd643945699eb52f738a05d6191  /home/pars/Documents/expSetups/a9/cc_base_L2_50__socFBBerkeley13
Extracting PTX file and ptxas options    1: cc_base_L2_50__socFBBerkeley13.1.sm_75.ptx -arch=sm_75
GPGPU-Sim uArch: performance model initialization complete.
Parallel calisiyor
self exe links to: /home/pars/Documents/expSetups/a9/cc_base_L2_50__socFBBerkeley13
self exe links to: /home/pars/Documents/expSetups/a9/cc_base_L2_50__socFBBerkeley13
11.0
GPGPU-Sim PTX: __cudaRegisterFatBinary, fat_cubin_handle = 1, filename=default
self exe links to: /home/pars/Documents/expSetups/a9/cc_base_L2_50__socFBBerkeley13
Running md5sum using "md5sum /home/pars/Documents/expSetups/a9/cc_base_L2_50__socFBBerkeley13 "
self exe links to: /home/pars/Documents/expSetups/a9/cc_base_L2_50__socFBBerkeley13
Extracting specific PTX file named cc_base_L2_50__socFBBerkeley13.1.sm_75.ptx 
GPGPU-Sim PTX: __cudaRegisterFunction _Z8shortcutiPi : hostFun 0x0x563bc858904a, fat_cubin_handle = 1
GPGPU-Sim PTX: Parsing cc_base_L2_50__socFBBerkeley13.1.sm_75.ptx
GPGPU-Sim PTX: Warning -- ignoring pragma 'nounroll'
GPGPU-Sim PTX: instruction assembly for function '_Z4hookiPKmPKiPiPb'...   done.
GPGPU-Sim PTX: instruction assembly for function '_Z8shortcutiPi'...   done.
GPGPU-Sim PTX: finished parsing EMBEDDED .ptx file cc_base_L2_50__socFBBerkeley13.1.sm_75.ptx
GPGPU-Sim PTX: loading globals with explicit initializers... 
GPGPU-Sim PTX: finished loading globals (0 bytes total).
GPGPU-Sim PTX: loading constants with explicit initializers...  done.
GPGPU-Sim PTX: Loading PTXInfo from cc_base_L2_50__socFBBerkeley13.1.sm_75.ptx
GPGPU-Sim PTX: Kernel '_Z8shortcutiPi' : regs=12, lmem=0, smem=0, cmem=368
GPGPU-Sim PTX: Kernel '_Z4hookiPKmPKiPiPb' : regs=18, lmem=0, smem=0, cmem=392
GPGPU-Sim PTX: __cudaRegisterFunction _Z4hookiPKmPKiPiPb : hostFun 0x0x563bc8588ecf, fat_cubin_handle = 1
Connected Component by Xuhao Chen
Reading (.mtx) input file ../../gardenia/datasets/socfb-Berkeley13.mtx
Removing redundent edges... 0 redundent edges are removed
|V| 22900 |E| 1704838
This graph is symmetrized
Launching CUDA CC solver (90 CTAs, 256 threads/CTA) ...
GPGPU-Sim PTX: Setting up arguments for 4 bytes starting at 0x7ffc80067efc..
GPGPU-Sim PTX: Setting up arguments for 8 bytes starting at 0x7ffc80067ef0..
GPGPU-Sim PTX: Setting up arguments for 8 bytes starting at 0x7ffc80067ee8..
GPGPU-Sim PTX: Setting up arguments for 8 bytes starting at 0x7ffc80067ee0..
GPGPU-Sim PTX: Setting up arguments for 8 bytes starting at 0x7ffc80067ed8..

GPGPU-Sim PTX: cudaLaunch for 0x0x563bc8588ecf (mode=performance simulation) on stream 0
GPGPU-Sim PTX: finding reconvergence points for '_Z4hookiPKmPKiPiPb'...
GPGPU-Sim PTX: Finding dominators for '_Z4hookiPKmPKiPiPb'...
GPGPU-Sim PTX: Finding immediate dominators for '_Z4hookiPKmPKiPiPb'...
GPGPU-Sim PTX: Finding postdominators for '_Z4hookiPKmPKiPiPb'...
GPGPU-Sim PTX: Finding immediate postdominators for '_Z4hookiPKmPKiPiPb'...
GPGPU-Sim PTX: pre-decoding instructions for '_Z4hookiPKmPKiPiPb'...
GPGPU-Sim PTX: reconvergence points for _Z4hookiPKmPKiPiPb...
GPGPU-Sim PTX:  1 (potential) branch divergence @  PC=0x068 (cc_base_L2_50__socFBBerkeley13.1.sm_75.ptx:42) @%p1 bra $L__BB0_23;
GPGPU-Sim PTX:    immediate post dominator      @  PC=0x408 (cc_base_L2_50__socFBBerkeley13.1.sm_75.ptx:201) ret;
GPGPU-Sim PTX:  2 (potential) branch divergence @  PC=0x0b8 (cc_base_L2_50__socFBBerkeley13.1.sm_75.ptx:53) @%p2 bra $L__BB0_23;
GPGPU-Sim PTX:    immediate post dominator      @  PC=0x408 (cc_base_L2_50__socFBBerkeley13.1.sm_75.ptx:201) ret;
GPGPU-Sim PTX:  3 (potential) branch divergence @  PC=0x0e0 (cc_base_L2_50__socFBBerkeley13.1.sm_75.ptx:59) @%p3 bra $L__BB0_8;
GPGPU-Sim PTX:    immediate post dominator      @  PC=0x1b0 (cc_base_L2_50__socFBBerkeley13.1.sm_75.ptx:97) not.b32 %r33, %r3;
GPGPU-Sim PTX:  4 (potential) branch divergence @  PC=0x130 (cc_base_L2_50__socFBBerkeley13.1.sm_75.ptx:75) @%p4 bra $L__BB0_7;
GPGPU-Sim PTX:    immediate post dominator      @  PC=0x188 (cc_base_L2_50__socFBBerkeley13.1.sm_75.ptx:90) add.s32 %r57, %r57, 1;
GPGPU-Sim PTX:  5 (potential) branch divergence @  PC=0x170 (cc_base_L2_50__socFBBerkeley13.1.sm_75.ptx:84) @%p5 bra $L__BB0_7;
GPGPU-Sim PTX:    immediate post dominator      @  PC=0x188 (cc_base_L2_50__socFBBerkeley13.1.sm_75.ptx:90) add.s32 %r57, %r57, 1;
GPGPU-Sim PTX:  6 (potential) branch divergence @  PC=0x1a8 (cc_base_L2_50__socFBBerkeley13.1.sm_75.ptx:94) @%p6 bra $L__BB0_4;
GPGPU-Sim PTX:    immediate post dominator      @  PC=0x1b0 (cc_base_L2_50__socFBBerkeley13.1.sm_75.ptx:97) not.b32 %r33, %r3;
GPGPU-Sim PTX:  7 (potential) branch divergence @  PC=0x1c8 (cc_base_L2_50__socFBBerkeley13.1.sm_75.ptx:100) @%p7 bra $L__BB0_23;
GPGPU-Sim PTX:    immediate post dominator      @  PC=0x408 (cc_base_L2_50__socFBBerkeley13.1.sm_75.ptx:201) ret;
GPGPU-Sim PTX:  8 (potential) branch divergence @  PC=0x210 (cc_base_L2_50__socFBBerkeley13.1.sm_75.ptx:114) @%p8 bra $L__BB0_13;
GPGPU-Sim PTX:    immediate post dominator      @  PC=0x268 (cc_base_L2_50__socFBBerkeley13.1.sm_75.ptx:129) ld.global.u32 %r41, [%rd42+4];
GPGPU-Sim PTX:  9 (potential) branch divergence @  PC=0x250 (cc_base_L2_50__socFBBerkeley13.1.sm_75.ptx:123) @%p9 bra $L__BB0_13;
GPGPU-Sim PTX:    immediate post dominator      @  PC=0x268 (cc_base_L2_50__socFBBerkeley13.1.sm_75.ptx:129) ld.global.u32 %r41, [%rd42+4];
GPGPU-Sim PTX: 10 (potential) branch divergence @  PC=0x290 (cc_base_L2_50__socFBBerkeley13.1.sm_75.ptx:136) @%p10 bra $L__BB0_16;
GPGPU-Sim PTX:    immediate post dominator      @  PC=0x2e8 (cc_base_L2_50__socFBBerkeley13.1.sm_75.ptx:151) ld.global.u32 %r46, [%rd42+8];
GPGPU-Sim PTX: 11 (potential) branch divergence @  PC=0x2d0 (cc_base_L2_50__socFBBerkeley13.1.sm_75.ptx:145) @%p11 bra $L__BB0_16;
GPGPU-Sim PTX:    immediate post dominator      @  PC=0x2e8 (cc_base_L2_50__socFBBerkeley13.1.sm_75.ptx:151) ld.global.u32 %r46, [%rd42+8];
GPGPU-Sim PTX: 12 (potential) branch divergence @  PC=0x310 (cc_base_L2_50__socFBBerkeley13.1.sm_75.ptx:158) @%p12 bra $L__BB0_19;
GPGPU-Sim PTX:    immediate post dominator      @  PC=0x368 (cc_base_L2_50__socFBBerkeley13.1.sm_75.ptx:173) ld.global.u32 %r51, [%rd42+12];
GPGPU-Sim PTX: 13 (potential) branch divergence @  PC=0x350 (cc_base_L2_50__socFBBerkeley13.1.sm_75.ptx:167) @%p13 bra $L__BB0_19;
GPGPU-Sim PTX:    immediate post dominator      @  PC=0x368 (cc_base_L2_50__socFBBerkeley13.1.sm_75.ptx:173) ld.global.u32 %r51, [%rd42+12];
GPGPU-Sim PTX: 14 (potential) branch divergence @  PC=0x390 (cc_base_L2_50__socFBBerkeley13.1.sm_75.ptx:180) @%p14 bra $L__BB0_22;
GPGPU-Sim PTX:    immediate post dominator      @  PC=0x3e8 (cc_base_L2_50__socFBBerkeley13.1.sm_75.ptx:195) add.s32 %r57, %r57, 4;
GPGPU-Sim PTX: 15 (potential) branch divergence @  PC=0x3d0 (cc_base_L2_50__socFBBerkeley13.1.sm_75.ptx:189) @%p15 bra $L__BB0_22;
GPGPU-Sim PTX:    immediate post dominator      @  PC=0x3e8 (cc_base_L2_50__socFBBerkeley13.1.sm_75.ptx:195) add.s32 %r57, %r57, 4;
GPGPU-Sim PTX: 16 (potential) branch divergence @  PC=0x400 (cc_base_L2_50__socFBBerkeley13.1.sm_75.ptx:198) @%p16 bra $L__BB0_10;
GPGPU-Sim PTX:    immediate post dominator      @  PC=0x408 (cc_base_L2_50__socFBBerkeley13.1.sm_75.ptx:201) ret;
GPGPU-Sim PTX: ... end of reconvergence points for _Z4hookiPKmPKiPiPb
GPGPU-Sim PTX: ... done pre-decoding instructions for '_Z4hookiPKmPKiPiPb'.
GPGPU-Sim PTX: pushing kernel '_Z4hookiPKmPKiPiPb' to stream 0, gridDim= (90,1,1) blockDim = (256,1,1) 
GPGPU-Sim uArch: Shader 0 bind to kernel 1 '_Z4hookiPKmPKiPiPb'
GPGPU-Sim uArch: CTA/core = 4, limited by: threads
GPGPU-Sim: Reconfigure L1 cache to 64KB
GPGPU-Sim uArch: Shader 1 bind to kernel 1 '_Z4hookiPKmPKiPiPb'
GPGPU-Sim uArch: Shader 2 bind to kernel 1 '_Z4hookiPKmPKiPiPb'
GPGPU-Sim uArch: Shader 3 bind to kernel 1 '_Z4hookiPKmPKiPiPb'
GPGPU-Sim uArch: Shader 4 bind to kernel 1 '_Z4hookiPKmPKiPiPb'
GPGPU-Sim uArch: Shader 5 bind to kernel 1 '_Z4hookiPKmPKiPiPb'
GPGPU-Sim uArch: Shader 6 bind to kernel 1 '_Z4hookiPKmPKiPiPb'
GPGPU-Sim uArch: Shader 7 bind to kernel 1 '_Z4hookiPKmPKiPiPb'
GPGPU-Sim uArch: Shader 8 bind to kernel 1 '_Z4hookiPKmPKiPiPb'
GPGPU-Sim uArch: Shader 9 bind to kernel 1 '_Z4hookiPKmPKiPiPb'
GPGPU-Sim uArch: Shader 10 bind to kernel 1 '_Z4hookiPKmPKiPiPb'
GPGPU-Sim uArch: Shader 11 bind to kernel 1 '_Z4hookiPKmPKiPiPb'
GPGPU-Sim uArch: Shader 12 bind to kernel 1 '_Z4hookiPKmPKiPiPb'
GPGPU-Sim uArch: Shader 13 bind to kernel 1 '_Z4hookiPKmPKiPiPb'
GPGPU-Sim uArch: Shader 14 bind to kernel 1 '_Z4hookiPKmPKiPiPb'
GPGPU-Sim uArch: Shader 15 bind to kernel 1 '_Z4hookiPKmPKiPiPb'
GPGPU-Sim uArch: Shader 16 bind to kernel 1 '_Z4hookiPKmPKiPiPb'
GPGPU-Sim uArch: Shader 17 bind to kernel 1 '_Z4hookiPKmPKiPiPb'
GPGPU-Sim uArch: Shader 18 bind to kernel 1 '_Z4hookiPKmPKiPiPb'
GPGPU-Sim uArch: Shader 19 bind to kernel 1 '_Z4hookiPKmPKiPiPb'
GPGPU-Sim uArch: Shader 20 bind to kernel 1 '_Z4hookiPKmPKiPiPb'
GPGPU-Sim uArch: Shader 21 bind to kernel 1 '_Z4hookiPKmPKiPiPb'
GPGPU-Sim uArch: Shader 22 bind to kernel 1 '_Z4hookiPKmPKiPiPb'
GPGPU-Sim uArch: Shader 23 bind to kernel 1 '_Z4hookiPKmPKiPiPb'
GPGPU-Sim uArch: Shader 24 bind to kernel 1 '_Z4hookiPKmPKiPiPb'
GPGPU-Sim uArch: Shader 25 bind to kernel 1 '_Z4hookiPKmPKiPiPb'
GPGPU-Sim uArch: Shader 26 bind to kernel 1 '_Z4hookiPKmPKiPiPb'
GPGPU-Sim uArch: Shader 27 bind to kernel 1 '_Z4hookiPKmPKiPiPb'
GPGPU-Sim uArch: Shader 28 bind to kernel 1 '_Z4hookiPKmPKiPiPb'
GPGPU-Sim uArch: Shader 29 bind to kernel 1 '_Z4hookiPKmPKiPiPb'
Simulation cycle for kernel 0 is = 10000
Simulation cycle for kernel 0 is = 15000
Simulation cycle for kernel 0 is = 20000
Simulation cycle for kernel 0 is = 25000
Simulation cycle for kernel 0 is = 30000
Simulation cycle for kernel 0 is = 35000
Simulation cycle for kernel 0 is = 40000
Simulation cycle for kernel 0 is = 45000
Simulation cycle for kernel 0 is = 50000
Simulation cycle for kernel 0 is = 55000
Simulation cycle for kernel 0 is = 60000
Simulation cycle for kernel 0 is = 65000
Simulation cycle for kernel 0 is = 70000
Simulation cycle for kernel 0 is = 75000
Simulation cycle for kernel 0 is = 80000
Simulation cycle for kernel 0 is = 85000
Simulation cycle for kernel 0 is = 90000
Simulation cycle for kernel 0 is = 95000
Simulation cycle for kernel 0 is = 100000
Simulation cycle for kernel 0 is = 105000
Simulation cycle for kernel 0 is = 110000
Simulation cycle for kernel 0 is = 115000
Simulation cycle for kernel 0 is = 120000
Simulation cycle for kernel 0 is = 125000
Simulation cycle for kernel 0 is = 130000
Simulation cycle for kernel 0 is = 135000
Simulation cycle for kernel 0 is = 140000
Simulation cycle for kernel 0 is = 145000
Simulation cycle for kernel 0 is = 150000
Simulation cycle for kernel 0 is = 155000
Simulation cycle for kernel 0 is = 160000
Simulation cycle for kernel 0 is = 165000
Simulation cycle for kernel 0 is = 170000
Simulation cycle for kernel 0 is = 175000
Simulation cycle for kernel 0 is = 180000
Simulation cycle for kernel 0 is = 185000
Simulation cycle for kernel 0 is = 190000
Simulation cycle for kernel 0 is = 195000
Simulation cycle for kernel 0 is = 200000
Simulation cycle for kernel 0 is = 205000
Simulation cycle for kernel 0 is = 210000
Simulation cycle for kernel 0 is = 215000
Simulation cycle for kernel 0 is = 220000
Simulation cycle for kernel 0 is = 225000
Simulation cycle for kernel 0 is = 230000
Simulation cycle for kernel 0 is = 235000
Simulation cycle for kernel 0 is = 240000
Simulation cycle for kernel 0 is = 245000
Simulation cycle for kernel 0 is = 250000
Simulation cycle for kernel 0 is = 255000
Simulation cycle for kernel 0 is = 260000
Simulation cycle for kernel 0 is = 265000
Simulation cycle for kernel 0 is = 270000
Simulation cycle for kernel 0 is = 275000
Simulation cycle for kernel 0 is = 280000
Simulation cycle for kernel 0 is = 285000
Simulation cycle for kernel 0 is = 290000
Simulation cycle for kernel 0 is = 295000
Simulation cycle for kernel 0 is = 300000
Simulation cycle for kernel 0 is = 305000
Simulation cycle for kernel 0 is = 310000
Simulation cycle for kernel 0 is = 315000
Simulation cycle for kernel 0 is = 320000
Simulation cycle for kernel 0 is = 325000
Simulation cycle for kernel 0 is = 330000
Simulation cycle for kernel 0 is = 335000
Simulation cycle for kernel 0 is = 340000
Simulation cycle for kernel 0 is = 345000
Simulation cycle for kernel 0 is = 350000
Simulation cycle for kernel 0 is = 355000
Simulation cycle for kernel 0 is = 360000
Simulation cycle for kernel 0 is = 365000
Simulation cycle for kernel 0 is = 370000
Simulation cycle for kernel 0 is = 375000
Simulation cycle for kernel 0 is = 380000
Simulation cycle for kernel 0 is = 385000
Simulation cycle for kernel 0 is = 390000
Simulation cycle for kernel 0 is = 395000
Simulation cycle for kernel 0 is = 400000
Simulation cycle for kernel 0 is = 405000
Simulation cycle for kernel 0 is = 410000
Simulation cycle for kernel 0 is = 415000
Simulation cycle for kernel 0 is = 420000
Simulation cycle for kernel 0 is = 425000
Simulation cycle for kernel 0 is = 430000
Simulation cycle for kernel 0 is = 435000
Simulation cycle for kernel 0 is = 440000
Simulation cycle for kernel 0 is = 445000
Simulation cycle for kernel 0 is = 450000
Simulation cycle for kernel 0 is = 455000
Simulation cycle for kernel 0 is = 460000
Simulation cycle for kernel 0 is = 465000
Simulation cycle for kernel 0 is = 470000
Simulation cycle for kernel 0 is = 475000
Simulation cycle for kernel 0 is = 480000
Simulation cycle for kernel 0 is = 485000
Simulation cycle for kernel 0 is = 490000
Simulation cycle for kernel 0 is = 495000
Simulation cycle for kernel 0 is = 500000
Simulation cycle for kernel 0 is = 505000
Simulation cycle for kernel 0 is = 510000
Simulation cycle for kernel 0 is = 515000
Simulation cycle for kernel 0 is = 520000
Simulation cycle for kernel 0 is = 525000
Simulation cycle for kernel 0 is = 530000
Simulation cycle for kernel 0 is = 535000
Simulation cycle for kernel 0 is = 540000
Simulation cycle for kernel 0 is = 545000
Simulation cycle for kernel 0 is = 550000
Simulation cycle for kernel 0 is = 555000
Simulation cycle for kernel 0 is = 560000
Simulation cycle for kernel 0 is = 565000
Simulation cycle for kernel 0 is = 570000
Simulation cycle for kernel 0 is = 575000
Simulation cycle for kernel 0 is = 580000
Simulation cycle for kernel 0 is = 585000
Simulation cycle for kernel 0 is = 590000
Simulation cycle for kernel 0 is = 595000
Simulation cycle for kernel 0 is = 600000
Simulation cycle for kernel 0 is = 605000
Simulation cycle for kernel 0 is = 610000
Simulation cycle for kernel 0 is = 615000
Simulation cycle for kernel 0 is = 620000
Simulation cycle for kernel 0 is = 625000
Simulation cycle for kernel 0 is = 630000
Simulation cycle for kernel 0 is = 635000
Simulation cycle for kernel 0 is = 640000
Simulation cycle for kernel 0 is = 645000
Simulation cycle for kernel 0 is = 650000
Simulation cycle for kernel 0 is = 655000
Simulation cycle for kernel 0 is = 660000
Simulation cycle for kernel 0 is = 665000
Simulation cycle for kernel 0 is = 670000
Simulation cycle for kernel 0 is = 675000
Simulation cycle for kernel 0 is = 680000
Simulation cycle for kernel 0 is = 685000
Simulation cycle for kernel 0 is = 690000
Simulation cycle for kernel 0 is = 695000
Simulation cycle for kernel 0 is = 700000
Simulation cycle for kernel 0 is = 705000
Simulation cycle for kernel 0 is = 710000
Simulation cycle for kernel 0 is = 715000
Simulation cycle for kernel 0 is = 720000
Simulation cycle for kernel 0 is = 725000
Simulation cycle for kernel 0 is = 730000
Simulation cycle for kernel 0 is = 735000
Simulation cycle for kernel 0 is = 740000
Simulation cycle for kernel 0 is = 745000
Simulation cycle for kernel 0 is = 750000
Simulation cycle for kernel 0 is = 755000
Simulation cycle for kernel 0 is = 760000
Simulation cycle for kernel 0 is = 765000
Simulation cycle for kernel 0 is = 770000
Simulation cycle for kernel 0 is = 775000
Simulation cycle for kernel 0 is = 780000
Simulation cycle for kernel 0 is = 785000
Simulation cycle for kernel 0 is = 790000
Simulation cycle for kernel 0 is = 795000
Simulation cycle for kernel 0 is = 800000
Simulation cycle for kernel 0 is = 805000
Simulation cycle for kernel 0 is = 810000
Simulation cycle for kernel 0 is = 815000
Simulation cycle for kernel 0 is = 820000
Simulation cycle for kernel 0 is = 825000
Simulation cycle for kernel 0 is = 830000
Simulation cycle for kernel 0 is = 835000
Simulation cycle for kernel 0 is = 840000
Simulation cycle for kernel 0 is = 845000
Simulation cycle for kernel 0 is = 850000
Simulation cycle for kernel 0 is = 855000
Simulation cycle for kernel 0 is = 860000
Simulation cycle for kernel 0 is = 865000
Simulation cycle for kernel 0 is = 870000
Simulation cycle for kernel 0 is = 875000
Simulation cycle for kernel 0 is = 880000
Simulation cycle for kernel 0 is = 885000
Simulation cycle for kernel 0 is = 890000
Simulation cycle for kernel 0 is = 895000
Simulation cycle for kernel 0 is = 900000
Simulation cycle for kernel 0 is = 905000
Simulation cycle for kernel 0 is = 910000
Simulation cycle for kernel 0 is = 915000
Simulation cycle for kernel 0 is = 920000
Simulation cycle for kernel 0 is = 925000
Simulation cycle for kernel 0 is = 930000
Simulation cycle for kernel 0 is = 935000
Simulation cycle for kernel 0 is = 940000
Simulation cycle for kernel 0 is = 945000
Simulation cycle for kernel 0 is = 950000
Simulation cycle for kernel 0 is = 955000
Simulation cycle for kernel 0 is = 960000
Simulation cycle for kernel 0 is = 965000
Simulation cycle for kernel 0 is = 970000
Simulation cycle for kernel 0 is = 975000
Simulation cycle for kernel 0 is = 980000
Simulation cycle for kernel 0 is = 985000
Simulation cycle for kernel 0 is = 990000
Simulation cycle for kernel 0 is = 995000
Simulation cycle for kernel 0 is = 1000000
Simulation cycle for kernel 0 is = 1005000
Simulation cycle for kernel 0 is = 1010000
Simulation cycle for kernel 0 is = 1015000
Simulation cycle for kernel 0 is = 1020000
Simulation cycle for kernel 0 is = 1025000
Simulation cycle for kernel 0 is = 1030000
Simulation cycle for kernel 0 is = 1035000
Simulation cycle for kernel 0 is = 1040000
Simulation cycle for kernel 0 is = 1045000
Simulation cycle for kernel 0 is = 1050000
Simulation cycle for kernel 0 is = 1055000
Simulation cycle for kernel 0 is = 1060000
Simulation cycle for kernel 0 is = 1065000
Simulation cycle for kernel 0 is = 1070000
Simulation cycle for kernel 0 is = 1075000
Simulation cycle for kernel 0 is = 1080000
Simulation cycle for kernel 0 is = 1085000
Simulation cycle for kernel 0 is = 1090000
Simulation cycle for kernel 0 is = 1095000
Simulation cycle for kernel 0 is = 1100000
Simulation cycle for kernel 0 is = 1105000
Simulation cycle for kernel 0 is = 1110000
Simulation cycle for kernel 0 is = 1115000
Simulation cycle for kernel 0 is = 1120000
Simulation cycle for kernel 0 is = 1125000
Simulation cycle for kernel 0 is = 1130000
Simulation cycle for kernel 0 is = 1135000
Simulation cycle for kernel 0 is = 1140000
Simulation cycle for kernel 0 is = 1145000
Simulation cycle for kernel 0 is = 1150000
Simulation cycle for kernel 0 is = 1155000
Simulation cycle for kernel 0 is = 1160000
Simulation cycle for kernel 0 is = 1165000
Simulation cycle for kernel 0 is = 1170000
Simulation cycle for kernel 0 is = 1175000
Simulation cycle for kernel 0 is = 1180000
Simulation cycle for kernel 0 is = 1185000
Simulation cycle for kernel 0 is = 1190000
Simulation cycle for kernel 0 is = 1195000
Simulation cycle for kernel 0 is = 1200000
Simulation cycle for kernel 0 is = 1205000
Simulation cycle for kernel 0 is = 1210000
Simulation cycle for kernel 0 is = 1215000
Simulation cycle for kernel 0 is = 1220000
Simulation cycle for kernel 0 is = 1225000
Simulation cycle for kernel 0 is = 1230000
Simulation cycle for kernel 0 is = 1235000
Simulation cycle for kernel 0 is = 1240000
Simulation cycle for kernel 0 is = 1245000
Simulation cycle for kernel 0 is = 1250000
Destroy streams for kernel 1: size 0
kernel_name = _Z4hookiPKmPKiPiPb 
kernel_launch_uid = 1 
gpu_sim_cycle = 1254353
gpu_sim_insn = 24725773
gpu_ipc =      19.7120
gpu_tot_sim_cycle = 1254353
gpu_tot_sim_insn = 24725773
gpu_tot_ipc =      19.7120
gpu_tot_issued_cta = 90
gpu_occupancy = 40.1365% 
gpu_tot_occupancy = 40.1365% 
max_total_param_size = 0
gpu_stall_dramfull = 17401
gpu_stall_icnt2sh    = 0
partiton_level_parallism =       1.7665
partiton_level_parallism_total  =       1.7665
partiton_level_parallism_util =      10.6203
partiton_level_parallism_util_total  =      10.6203
L2_BW  =      77.1622 GB/Sec
L2_BW_total  =      77.1622 GB/Sec
gpu_total_sim_rate=6751

========= Core cache stats =========
L1I_cache:
	L1I_total_cache_accesses = 0
	L1I_total_cache_misses = 0
	L1I_total_cache_pending_hits = 0
	L1I_total_cache_reservation_fails = 0
L1D_cache:
	L1D_cache_core[0]: Access = 142947, Miss = 79830, Miss_rate = 0.558, Pending_hits = 1912, Reservation_fails = 123967
	L1D_cache_core[1]: Access = 125311, Miss = 72985, Miss_rate = 0.582, Pending_hits = 1895, Reservation_fails = 107590
	L1D_cache_core[2]: Access = 125736, Miss = 71586, Miss_rate = 0.569, Pending_hits = 1816, Reservation_fails = 110187
	L1D_cache_core[3]: Access = 139238, Miss = 78108, Miss_rate = 0.561, Pending_hits = 2073, Reservation_fails = 125508
	L1D_cache_core[4]: Access = 126086, Miss = 72908, Miss_rate = 0.578, Pending_hits = 1944, Reservation_fails = 107347
	L1D_cache_core[5]: Access = 131524, Miss = 75150, Miss_rate = 0.571, Pending_hits = 2054, Reservation_fails = 127677
	L1D_cache_core[6]: Access = 131869, Miss = 75773, Miss_rate = 0.575, Pending_hits = 2211, Reservation_fails = 116082
	L1D_cache_core[7]: Access = 128010, Miss = 71471, Miss_rate = 0.558, Pending_hits = 2001, Reservation_fails = 107157
	L1D_cache_core[8]: Access = 136991, Miss = 77369, Miss_rate = 0.565, Pending_hits = 2161, Reservation_fails = 127603
	L1D_cache_core[9]: Access = 121928, Miss = 68728, Miss_rate = 0.564, Pending_hits = 1940, Reservation_fails = 109919
	L1D_cache_core[10]: Access = 136998, Miss = 74340, Miss_rate = 0.543, Pending_hits = 2103, Reservation_fails = 118191
	L1D_cache_core[11]: Access = 138236, Miss = 78487, Miss_rate = 0.568, Pending_hits = 2501, Reservation_fails = 133715
	L1D_cache_core[12]: Access = 131377, Miss = 72274, Miss_rate = 0.550, Pending_hits = 2066, Reservation_fails = 116508
	L1D_cache_core[13]: Access = 126454, Miss = 71784, Miss_rate = 0.568, Pending_hits = 2033, Reservation_fails = 125081
	L1D_cache_core[14]: Access = 137942, Miss = 78096, Miss_rate = 0.566, Pending_hits = 2250, Reservation_fails = 140898
	L1D_cache_core[15]: Access = 130308, Miss = 71683, Miss_rate = 0.550, Pending_hits = 2045, Reservation_fails = 117470
	L1D_cache_core[16]: Access = 135997, Miss = 74758, Miss_rate = 0.550, Pending_hits = 2222, Reservation_fails = 129597
	L1D_cache_core[17]: Access = 132000, Miss = 73030, Miss_rate = 0.553, Pending_hits = 2169, Reservation_fails = 128924
	L1D_cache_core[18]: Access = 142034, Miss = 80267, Miss_rate = 0.565, Pending_hits = 2373, Reservation_fails = 151603
[...]

------------------------------------------------------------------------

Row_Buffer_Locality = 0.133910
Row_Buffer_Locality_read = 0.133962
Row_Buffer_Locality_write = 0.000000
Bank_Level_Parallism = 3.451259
Bank_Level_Parallism_Col = 2.188063
Bank_Level_Parallism_Ready = 1.080266
write_to_read_ratio_blp_rw_average = 0.000000
GrpLevelPara = 0.000000 

BW Util details:
bwutil = 0.029953 
total_CMD = 9240325 
util_bw = 276776 
Wasted_Col = 777533 
Wasted_Row = 267600 
Idle = 7918416 

BW Util Bottlenecks: 
RCDc_limit = 1120877 
RCDWRc_limit = 207 
WTRc_limit = 2260 
RTWc_limit = 6415 
CCDLc_limit = 39606 
rwq = 0 
CCDLc_limit_alone = 39155 
WTRc_limit_alone = 2178 
RTWc_limit_alone = 6046 

Commands details: 
total_CMD = 9240325 
n_nop = 9062683 
Read = 69094 
Write = 0 
L2_Alloc = 0 
L2_WB = 100 
n_act = 59877 
n_pre = 59861 
n_ref = 2891422515659624736 
n_req = 69121 
total_req = 69194 

Dual Bus Interface Util: 
issued_total_row = 119738 
issued_total_col = 69194 
Row_Bus_Util =  0.012958 
CoL_Bus_Util = 0.007488 
Either_Row_CoL_Bus_Util = 0.019225 
Issued_on_Two_Bus_Simul_Util = 0.001222 
issued_two_Eff = 0.063555 
queue_avg = 0.449511 


dram_util_bins: 0 0 0 0 0 0 0 0 0 0
dram_eff_bins: 0 0 0 0 0 0 0 0 0 0
mrqq: max=64 avg=0.449511
Memory Partition 7: 
Cache L2_bank_014:
MSHR contents

Cache L2_bank_015:
MSHR contents

In Dram Latency Queue (total = 0): 
DRAM[7]: 16 bks, busW=2 BL=16 CL=24, tRRD=12 tCCD=4, tRCD=24 tRAS=55 tRP=24 tRC=78
n_cmd=9240325 n_nop=9081188 n_act=52434 n_pre=52418 n_ref_event=2891422515659624736 n_req=59970 n_rd=59945 n_rd_L2_A=0 n_write=0 n_wr_bk=91 bw_util=0.02599
n_activity=1515531 dram_eff=0.1585
bk0: 3812a 9031881i bk1: 3632a 9039844i bk2: 3963a 9023807i bk3: 3701a 9039170i bk4: 3881a 9025875i bk5: 3734a 9030717i bk6: 3826a 9029269i bk7: 3774a 9030003i bk8: 3849a 9015905i bk9: 3641a 9029086i bk10: 3816a 9023882i bk11: 3684a 9029592i bk12: 3715a 9023689i bk13: 3639a 9030403i bk14: 3669a 9031540i bk15: 3609a 9031518i 

------------------------------------------------------------------------

Row_Buffer_Locality = 0.125846
Row_Buffer_Locality_read = 0.125899
Row_Buffer_Locality_write = 0.000000
Bank_Level_Parallism = 2.661454
Bank_Level_Parallism_Col = 2.188063
Bank_Level_Parallism_Ready = 1.085362
write_to_read_ratio_blp_rw_average = 0.000000
GrpLevelPara = 0.000000 

BW Util details:
bwutil = 0.025989 
total_CMD = 9240325 
util_bw = 240144 
Wasted_Col = 763627 
Wasted_Row = 296967 
Idle = 7939587 

BW Util Bottlenecks: 
RCDc_limit = 1037515 
RCDWRc_limit = 248 
WTRc_limit = 1183 
RTWc_limit = 1976 
CCDLc_limit = 27903 
rwq = 0 
CCDLc_limit_alone = 27702 
WTRc_limit_alone = 1119 
RTWc_limit_alone = 1839 

Commands details: 
total_CMD = 9240325 
n_nop = 9081188 
Read = 59945 
Write = 0 
L2_Alloc = 0 
L2_WB = 91 
n_act = 52434 
n_pre = 52418 
n_ref = 2891422515659624736 
n_req = 59970 
total_req = 60036 

Dual Bus Interface Util: 
issued_total_row = 104852 
issued_total_col = 60036 
Row_Bus_Util =  0.011347 
CoL_Bus_Util = 0.006497 
Either_Row_CoL_Bus_Util = 0.017222 
Issued_on_Two_Bus_Simul_Util = 0.000622 
issued_two_Eff = 0.036139 
queue_avg = 0.243232 


dram_util_bins: 0 0 0 0 0 0 0 0 0 0
dram_eff_bins: 0 0 0 0 0 0 0 0 0 0
mrqq: max=64 avg=0.243232
Memory Partition 8: 
Cache L2_bank_016:
MSHR contents

Cache L2_bank_017:
MSHR contents

In Dram Latency Queue (total = 0): 
DRAM[8]: 16 bks, busW=2 BL=16 CL=24, tRRD=12 tCCD=4, tRCD=24 tRAS=55 tRP=24 tRC=78
n_cmd=9240325 n_nop=9072397 n_act=55809 n_pre=55793 n_ref_event=2891422515659624736 n_req=64260 n_rd=64245 n_rd_L2_A=0 n_write=0 n_wr_bk=59 bw_util=0.02784
n_activity=1503523 dram_eff=0.1711
bk0: 4197a 8995941i bk1: 4027a 9008301i bk2: 4048a 9005517i bk3: 3925a 9012801i bk4: 4010a 9005838i bk5: 3926a 9016853i bk6: 4270a 8993032i bk7: 3938a 9010344i bk8: 4123a 8988943i bk9: 4010a 8999549i bk10: 4206a 8992971i bk11: 4007a 9005178i bk12: 4116a 8992102i bk13: 3837a 9006830i bk14: 3906a 9001718i bk15: 3699a 9015705i 

------------------------------------------------------------------------

Row_Buffer_Locality = 0.131715
Row_Buffer_Locality_read = 0.131730
Row_Buffer_Locality_write = 0.066667
Bank_Level_Parallism = 2.987031
Bank_Level_Parallism_Col = 2.188063
Bank_Level_Parallism_Ready = 1.083315
write_to_read_ratio_blp_rw_average = 0.000000
GrpLevelPara = 0.000000 

BW Util details:
bwutil = 0.027836 
total_CMD = 9240325 
util_bw = 257216 
Wasted_Col = 768847 
Wasted_Row = 274740 
Idle = 7939522 

BW Util Bottlenecks: 
RCDc_limit = 1077185 
RCDWRc_limit = 119 
WTRc_limit = 1231 
RTWc_limit = 2434 
CCDLc_limit = 33026 
rwq = 0 
CCDLc_limit_alone = 32757 
WTRc_limit_alone = 1138 
RTWc_limit_alone = 2258 

Commands details: 
total_CMD = 9240325 
n_nop = 9072397 
Read = 64245 
Write = 0 
L2_Alloc = 0 
L2_WB = 59 
n_act = 55809 
n_pre = 55793 
n_ref = 2891422515659624736 
n_req = 64260 
total_req = 64304 

Dual Bus Interface Util: 
issued_total_row = 111602 
issued_total_col = 64304 
Row_Bus_Util =  0.012078 
CoL_Bus_Util = 0.006959 
Either_Row_CoL_Bus_Util = 0.018173 
Issued_on_Two_Bus_Simul_Util = 0.000863 
issued_two_Eff = 0.047508 
queue_avg = 0.333659 


dram_util_bins: 0 0 0 0 0 0 0 0 0 0
dram_eff_bins: 0 0 0 0 0 0 0 0 0 0
mrqq: max=64 avg=0.333659
Memory Partition 9: 
Cache L2_bank_018:
MSHR contents

Cache L2_bank_019:
MSHR contents

In Dram Latency Queue (total = 0): 
DRAM[9]: 16 bks, busW=2 BL=16 CL=24, tRRD=12 tCCD=4, tRCD=24 tRAS=55 tRP=24 tRC=78
n_cmd=9240325 n_nop=9071316 n_act=56557 n_pre=56541 n_ref_event=3544670595274797939 n_req=65216 n_rd=65185 n_rd_L2_A=0 n_write=0 n_wr_bk=119 bw_util=0.02827
n_activity=1495216 dram_eff=0.1747
bk0: 4000a 8999649i bk1: 4316a 8977739i bk2: 3929a 9005419i bk3: 4099a 8995874i bk4: 3985a 8997953i bk5: 4388a 8974031i bk6: 3942a 8998816i bk7: 4291a 8972810i bk8: 3902a 8989334i bk9: 4338a 8960793i bk10: 3942a 8995798i bk11: 4321a 8970388i bk12: 3796a 8997852i bk13: 4054a 8983911i bk14: 3879a 8995384i bk15: 4003a 8989750i 

------------------------------------------------------------------------

Row_Buffer_Locality = 0.132928
Row_Buffer_Locality_read = 0.132945
Row_Buffer_Locality_write = 0.096774
Bank_Level_Parallism = 3.205614
Bank_Level_Parallism_Col = 0.499841
Bank_Level_Parallism_Ready = 1.082901
write_to_read_ratio_blp_rw_average = 0.000000
GrpLevelPara = 0.000000 

BW Util details:
bwutil = 0.028269 
total_CMD = 9240325 
util_bw = 261216 
Wasted_Col = 759228 
Wasted_Row = 270547 
Idle = 7949334 

BW Util Bottlenecks: 
RCDc_limit = 1075360 
RCDWRc_limit = 231 
WTRc_limit = 2326 
RTWc_limit = 3947 
CCDLc_limit = 35540 
rwq = 0 
CCDLc_limit_alone = 35117 
WTRc_limit_alone = 2188 
RTWc_limit_alone = 3662 

Commands details: 
total_CMD = 9240325 
n_nop = 9071316 
Read = 65185 
Write = 0 
L2_Alloc = 0 
L2_WB = 119 
n_act = 56557 
n_pre = 56541 
n_ref = 3544670595274797939 
n_req = 65216 
total_req = 65304 

Dual Bus Interface Util: 
issued_total_row = 113098 
issued_total_col = 65304 
Row_Bus_Util =  0.012240 
CoL_Bus_Util = 0.007067 
Either_Row_CoL_Bus_Util = 0.018290 
Issued_on_Two_Bus_Simul_Util = 0.001017 
issued_two_Eff = 0.055577 
queue_avg = 0.381689 


dram_util_bins: 0 0 0 0 0 0 0 0 0 0
dram_eff_bins: 0 0 0 0 0 0 0 0 0 0
mrqq: max=64 avg=0.381689
Memory Partition 10: 
Cache L2_bank_020:
MSHR contents

Cache L2_bank_021:
MSHR contents

In Dram Latency Queue (total = 0): 
DRAM[10]: 16 bks, busW=2 BL=16 CL=24, tRRD=12 tCCD=4, tRCD=24 tRAS=55 tRP=24 tRC=78
n_cmd=9240325 n_nop=9077013 n_act=54041 n_pre=54025 n_ref_event=3544670595274797939 n_req=61960 n_rd=61937 n_rd_L2_A=0 n_write=0 n_wr_bk=88 bw_util=0.02685
n_activity=1511984 dram_eff=0.1641
bk0: 3866a 9022134i bk1: 3879a 9021190i bk2: 3844a 9026992i bk3: 3865a 9028087i bk4: 3976a 9016151i bk5: 3923a 9023378i bk6: 3906a 9016927i bk7: 3954a 9015262i bk8: 3885a 9011004i bk9: 3858a 9012207i bk10: 4054a 9005754i bk11: 3898a 9015088i bk12: 3923a 9012160i bk13: 3705a 9022601i bk14: 3704a 9027242i bk15: 3697a 9024326i 

------------------------------------------------------------------------

Row_Buffer_Locality = 0.128002
Row_Buffer_Locality_read = 0.128001
Row_Buffer_Locality_write = 0.130435
Bank_Level_Parallism = 2.778015
Bank_Level_Parallism_Col = 0.499841
Bank_Level_Parallism_Ready = 1.077435
write_to_read_ratio_blp_rw_average = 0.000000
GrpLevelPara = 0.000000 

BW Util details:
bwutil = 0.026850 
total_CMD = 9240325 
util_bw = 248100 
Wasted_Col = 770376 
Wasted_Row = 288321 
Idle = 7933528 

BW Util Bottlenecks: 
RCDc_limit = 1058772 
RCDWRc_limit = 205 
WTRc_limit = 1505 
RTWc_limit = 1689 
CCDLc_limit = 30288 
rwq = 0 
CCDLc_limit_alone = 30091 
WTRc_limit_alone = 1430 
RTWc_limit_alone = 1567 

Commands details: 
total_CMD = 9240325 
n_nop = 9077013 
Read = 61937 
Write = 0 
L2_Alloc = 0 
L2_WB = 88 
n_act = 54041 
n_pre = 54025 
n_ref = 3544670595274797939 
n_req = 61960 
total_req = 62025 

Dual Bus Interface Util: 
issued_total_row = 108066 
issued_total_col = 62025 
Row_Bus_Util =  0.011695 
CoL_Bus_Util = 0.006712 
Either_Row_CoL_Bus_Util = 0.017674 
Issued_on_Two_Bus_Simul_Util = 0.000734 
issued_two_Eff = 0.041510 
queue_avg = 0.271874 


dram_util_bins: 0 0 0 0 0 0 0 0 0 0
dram_eff_bins: 0 0 0 0 0 0 0 0 0 0
mrqq: max=64 avg=0.271874
Memory Partition 11: 
Cache L2_bank_022:
MSHR contents

Cache L2_bank_023:
MSHR contents

In Dram Latency Queue (total = 0): 
DRAM[11]: 16 bks, busW=2 BL=16 CL=24, tRRD=12 tCCD=4, tRCD=24 tRAS=55 tRP=24 tRC=78
n_cmd=9240325 n_nop=9082623 n_act=51786 n_pre=51770 n_ref_event=3544670595274797939 n_req=59577 n_rd=59562 n_rd_L2_A=0 n_write=0 n_wr_bk=57 bw_util=0.02581
n_activity=1529671 dram_eff=0.1559
bk0: 3842a 9030200i bk1: 3732a 9038366i bk2: 3788a 9034410i bk3: 3652a 9039364i bk4: 3907a 9028375i bk5: 3599a 9043723i bk6: 4004a 9015224i bk7: 3564a 9043383i bk8: 3869a 9019823i bk9: 3667a 9029801i bk10: 3802a 9021893i bk11: 3654a 9032485i bk12: 3731a 9026869i bk13: 3488a 9040449i bk14: 3780a 9030566i bk15: 3483a 9046684i 

------------------------------------------------------------------------

Row_Buffer_Locality = 0.130923
Row_Buffer_Locality_read = 0.130956
Row_Buffer_Locality_write = 0.000000
Bank_Level_Parallism = 2.598220
Bank_Level_Parallism_Col = 0.499841
Bank_Level_Parallism_Ready = 1.085594
write_to_read_ratio_blp_rw_average = 0.000000
GrpLevelPara = 0.000000 

BW Util details:
bwutil = 0.025808 
total_CMD = 9240325 
util_bw = 238476 
Wasted_Col = 764114 
Wasted_Row = 308740 
Idle = 7928995 

BW Util Bottlenecks: 
RCDc_limit = 1028370 
RCDWRc_limit = 167 
WTRc_limit = 639 
RTWc_limit = 308 
CCDLc_limit = 27158 
rwq = 0 
CCDLc_limit_alone = 27125 
WTRc_limit_alone = 618 
RTWc_limit_alone = 296 

Commands details: 
total_CMD = 9240325 
n_nop = 9082623 
Read = 59562 
Write = 0 
L2_Alloc = 0 
L2_WB = 57 
n_act = 51786 
n_pre = 51770 
n_ref = 3544670595274797939 
n_req = 59577 
total_req = 59619 

Dual Bus Interface Util: 
issued_total_row = 103556 
issued_total_col = 59619 
Row_Bus_Util =  0.011207 
CoL_Bus_Util = 0.006452 
Either_Row_CoL_Bus_Util = 0.017067 
Issued_on_Two_Bus_Simul_Util = 0.000592 
issued_two_Eff = 0.034705 
queue_avg = 0.251482 


dram_util_bins: 0 0 0 0 0 0 0 0 0 0
dram_eff_bins: 0 0 0 0 0 0 0 0 0 0
mrqq: max=64 avg=0.251482

========= L2 cache stats =========
L2_cache_bank[0]: Access = 281418, Miss = 30515, Miss_rate = 0.108, Pending_hits = 52, Reservation_fails = 0
L2_cache_bank[1]: Access = 283389, Miss = 29673, Miss_rate = 0.105, Pending_hits = 5, Reservation_fails = 0
L2_cache_bank[2]: Access = 292076, Miss = 31682, Miss_rate = 0.108, Pending_hits = 8, Reservation_fails = 0
L2_cache_bank[3]: Access = 282243, Miss = 31941, Miss_rate = 0.113, Pending_hits = 4, Reservation_fails = 0
L2_cache_bank[4]: Access = 281825, Miss = 31129, Miss_rate = 0.110, Pending_hits = 9, Reservation_fails = 0
L2_cache_bank[5]: Access = 284800, Miss = 30921, Miss_rate = 0.109, Pending_hits = 2, Reservation_fails = 58
L2_cache_bank[6]: Access = 285306, Miss = 30683, Miss_rate = 0.108, Pending_hits = 2, Reservation_fails = 0
L2_cache_bank[7]: Access = 288807, Miss = 30982, Miss_rate = 0.107, Pending_hits = 6, Reservation_fails = 22
L2_cache_bank[8]: Access = 287062, Miss = 32866, Miss_rate = 0.114, Pending_hits = 53, Reservation_fails = 0
L2_cache_bank[9]: Access = 289319, Miss = 31651, Miss_rate = 0.109, Pending_hits = 4, Reservation_fails = 0
L2_cache_bank[10]: Access = 283506, Miss = 30142, Miss_rate = 0.106, Pending_hits = 0, Reservation_fails = 0
L2_cache_bank[11]: Access = 280310, Miss = 29595, Miss_rate = 0.106, Pending_hits = 1, Reservation_fails = 6
L2_cache_bank[12]: Access = 279753, Miss = 35048, Miss_rate = 0.125, Pending_hits = 4, Reservation_fails = 0
L2_cache_bank[13]: Access = 286266, Miss = 34055, Miss_rate = 0.119, Pending_hits = 12, Reservation_fails = 0
L2_cache_bank[14]: Access = 286605, Miss = 30535, Miss_rate = 0.107, Pending_hits = 6, Reservation_fails = 0
L2_cache_bank[15]: Access = 280259, Miss = 29415, Miss_rate = 0.105, Pending_hits = 2, Reservation_fails = 0
L2_cache_bank[16]: Access = 284854, Miss = 32879, Miss_rate = 0.115, Pending_hits = 59, Reservation_fails = 0
L2_cache_bank[17]: Access = 286311, Miss = 31369, Miss_rate = 0.110, Pending_hits = 2, Reservation_fails = 0
L2_cache_bank[18]: Access = 283371, Miss = 31375, Miss_rate = 0.111, Pending_hits = 5, Reservation_fails = 0
L2_cache_bank[19]: Access = 285971, Miss = 33814, Miss_rate = 0.118, Pending_hits = 9, Reservation_fails = 0
L2_cache_bank[20]: Access = 284929, Miss = 31158, Miss_rate = 0.109, Pending_hits = 2, Reservation_fails = 0
L2_cache_bank[21]: Access = 281733, Miss = 30781, Miss_rate = 0.109, Pending_hits = 8, Reservation_fails = 2
L2_cache_bank[22]: Access = 283105, Miss = 30723, Miss_rate = 0.109, Pending_hits = 2, Reservation_fails = 0
L2_cache_bank[23]: Access = 278952, Miss = 28839, Miss_rate = 0.103, Pending_hits = 0, Reservation_fails = 0
L2_total_cache_accesses = 6822170
L2_total_cache_misses = 751771
L2_total_cache_miss_rate = 0.1102
L2_total_cache_pending_hits = 257
L2_total_cache_reservation_fails = 88
L2_total_cache_breakdown:
	L2_cache_stats_breakdown[GLOBAL_ACC_R][HIT] = 6049664
	L2_cache_stats_breakdown[GLOBAL_ACC_R][HIT_RESERVED] = 256
	L2_cache_stats_breakdown[GLOBAL_ACC_R][MISS] = 272469
	L2_cache_stats_breakdown[GLOBAL_ACC_R][RESERVATION_FAIL] = 88
	L2_cache_stats_breakdown[GLOBAL_ACC_R][SECTOR_MISS] = 479262
	L2_cache_stats_breakdown[GLOBAL_ACC_R][MSHR_HIT] = 256
	L2_cache_stats_breakdown[LOCAL_ACC_R][HIT] = 0
	L2_cache_stats_breakdown[LOCAL_ACC_R][HIT_RESERVED] = 0
	L2_cache_stats_breakdown[LOCAL_ACC_R][MISS] = 0
	L2_cache_stats_breakdown[LOCAL_ACC_R][RESERVATION_FAIL] = 0
	L2_cache_stats_breakdown[LOCAL_ACC_R][SECTOR_MISS] = 0
	L2_cache_stats_breakdown[LOCAL_ACC_R][MSHR_HIT] = 0
	L2_cache_stats_breakdown[CONST_ACC_R][HIT] = 0
	L2_cache_stats_breakdown[CONST_ACC_R][HIT_RESERVED] = 0
	L2_cache_stats_breakdown[CONST_ACC_R][MISS] = 0
	L2_cache_stats_breakdown[CONST_ACC_R][RESERVATION_FAIL] = 0
	L2_cache_stats_breakdown[CONST_ACC_R][SECTOR_MISS] = 0
	L2_cache_stats_breakdown[CONST_ACC_R][MSHR_HIT] = 0
	L2_cache_stats_breakdown[TEXTURE_ACC_R][HIT] = 0
	L2_cache_stats_breakdown[TEXTURE_ACC_R][HIT_RESERVED] = 0
	L2_cache_stats_breakdown[TEXTURE_ACC_R][MISS] = 0
	L2_cache_stats_breakdown[TEXTURE_ACC_R][RESERVATION_FAIL] = 0
	L2_cache_stats_breakdown[TEXTURE_ACC_R][SECTOR_MISS] = 0
	L2_cache_stats_breakdown[TEXTURE_ACC_R][MSHR_HIT] = 0
	L2_cache_stats_breakdown[GLOBAL_ACC_W][HIT] = 20478
	L2_cache_stats_breakdown[GLOBAL_ACC_W][HIT_RESERVED] = 1
	L2_cache_stats_breakdown[GLOBAL_ACC_W][MISS] = 13
	L2_cache_stats_breakdown[GLOBAL_ACC_W][RESERVATION_FAIL] = 0
	L2_cache_stats_breakdown[GLOBAL_ACC_W][SECTOR_MISS] = 27
	L2_cache_stats_breakdown[GLOBAL_ACC_W][MSHR_HIT] = 0
	L2_cache_stats_breakdown[LOCAL_ACC_W][HIT] = 0
	L2_cache_stats_breakdown[LOCAL_ACC_W][HIT_RESERVED] = 0
	L2_cache_stats_breakdown[LOCAL_ACC_W][MISS] = 0
	L2_cache_stats_breakdown[LOCAL_ACC_W][RESERVATION_FAIL] = 0
	L2_cache_stats_breakdown[LOCAL_ACC_W][SECTOR_MISS] = 0
	L2_cache_stats_breakdown[LOCAL_ACC_W][MSHR_HIT] = 0
	L2_cache_stats_breakdown[L1_WRBK_ACC][HIT] = 0
	L2_cache_stats_breakdown[L1_WRBK_ACC][HIT_RESERVED] = 0
	L2_cache_stats_breakdown[L1_WRBK_ACC][MISS] = 0
	L2_cache_stats_breakdown[L1_WRBK_ACC][RESERVATION_FAIL] = 0
	L2_cache_stats_breakdown[L1_WRBK_ACC][SECTOR_MISS] = 0
	L2_cache_stats_breakdown[L1_WRBK_ACC][MSHR_HIT] = 0
	L2_cache_stats_breakdown[L2_WRBK_ACC][HIT] = 0
	L2_cache_stats_breakdown[L2_WRBK_ACC][HIT_RESERVED] = 0
	L2_cache_stats_breakdown[L2_WRBK_ACC][MISS] = 0
	L2_cache_stats_breakdown[L2_WRBK_ACC][RESERVATION_FAIL] = 0
	L2_cache_stats_breakdown[L2_WRBK_ACC][SECTOR_MISS] = 0
	L2_cache_stats_breakdown[L2_WRBK_ACC][MSHR_HIT] = 0
	L2_cache_stats_breakdown[INST_ACC_R][HIT] = 0
	L2_cache_stats_breakdown[INST_ACC_R][HIT_RESERVED] = 0
	L2_cache_stats_breakdown[INST_ACC_R][MISS] = 0
	L2_cache_stats_breakdown[INST_ACC_R][RESERVATION_FAIL] = 0
	L2_cache_stats_breakdown[INST_ACC_R][SECTOR_MISS] = 0
	L2_cache_stats_breakdown[INST_ACC_R][MSHR_HIT] = 0
	L2_cache_stats_breakdown[L1_WR_ALLOC_R][HIT] = 0
	L2_cache_stats_breakdown[L1_WR_ALLOC_R][HIT_RESERVED] = 0
	L2_cache_stats_breakdown[L1_WR_ALLOC_R][MISS] = 0
	L2_cache_stats_breakdown[L1_WR_ALLOC_R][RESERVATION_FAIL] = 0
	L2_cache_stats_breakdown[L1_WR_ALLOC_R][SECTOR_MISS] = 0
	L2_cache_stats_breakdown[L1_WR_ALLOC_R][MSHR_HIT] = 0
	L2_cache_stats_breakdown[L2_WR_ALLOC_R][HIT] = 0
	L2_cache_stats_breakdown[L2_WR_ALLOC_R][HIT_RESERVED] = 0
	L2_cache_stats_breakdown[L2_WR_ALLOC_R][MISS] = 0
	L2_cache_stats_breakdown[L2_WR_ALLOC_R][RESERVATION_FAIL] = 0
	L2_cache_stats_breakdown[L2_WR_ALLOC_R][SECTOR_MISS] = 0
	L2_cache_stats_breakdown[L2_WR_ALLOC_R][MSHR_HIT] = 0
	L2_cache_stats_breakdown[GLOBAL_ACC_R][TOTAL_ACCESS] = 6801651
	L2_cache_stats_breakdown[GLOBAL_ACC_W][TOTAL_ACCESS] = 20519
L2_total_cache_reservation_fail_breakdown:
	L2_cache_stats_fail_breakdown[GLOBAL_ACC_R][MSHR_ENRTY_FAIL] = 88
L2_cache_data_port_util = 0.070
L2_cache_fill_port_util = 0.009

icnt_total_pkts_mem_to_simt=6822170
icnt_total_pkts_simt_to_mem=6822170
LD_mem_lat_dist  0 0 0 0 0 0 0 0 0 0 0 0 0 0 0 0 0 0 0 0 0 0 0 0 0 0 0
ST_mem_lat_dist  0 0 0 0 0 0 0 0 0 0 0 0 0 0 0 0 0 0 0 0 0 0 0 0 0 0 0
----------------------------Interconnect-DETAILS--------------------------------
Req_Network_injected_packets_num = 6822170
Req_Network_cycles = 3603217
Req_Network_injected_packets_per_cycle =       1.8934 
Req_Network_conflicts_per_cycle =       1.4331
Req_Network_conflicts_per_cycle_util =       8.2898
Req_Bank_Level_Parallism =      10.9523
Req_Network_in_buffer_full_per_cycle =       0.0000
Req_Network_in_buffer_avg_util =      10.0075
Req_Network_out_buffer_full_per_cycle =       0.0000
Req_Network_out_buffer_avg_util =       0.1246

Reply_Network_injected_packets_num = 6822170
Reply_Network_cycles = 3603217
Reply_Network_injected_packets_per_cycle =        1.8934
Reply_Network_conflicts_per_cycle =        0.8369
Reply_Network_conflicts_per_cycle_util =       4.8434
Reply_Bank_Level_Parallism =      10.9581
Reply_Network_in_buffer_full_per_cycle =       0.0000
Reply_Network_in_buffer_avg_util =       0.2163
Reply_Network_out_buffer_full_per_cycle =       0.0000
Reply_Network_out_buffer_avg_util =       0.0631
----------------------------END-of-Interconnect-DETAILS-------------------------


gpgpu_simulation_time = 0 days, 2 hrs, 52 min, 4 sec (10324 sec)
gpgpu_simulation_rate = 5500 (inst/sec)
gpgpu_simulation_rate = 349 (cycle/sec)
gpgpu_silicon_slowdown = 3911174x
GPGPU-Sim: synchronize waiting for inactive GPU simulation
GPGPU-Sim API: Stream Manager State
GPGPU-Sim: detected inactive GPU simulation thread
	iterations = 3.
	runtime [cuda_base] = 10321829.347000 ms.
Verifying...
Total element = 1704838, || elements whose err <= %0.1 = 0 || elements whose 0.1 < err  <= %1 = 0 || elements whose %1 < err <= %5 = 0 || elements whose %5 < err <= %10 = 0 || elements whose %10 < err = 22899 || total err Element = 22899
	runtime [serial] = 25.606000 ms.
Correct
GPGPU-Sim: *** exit detected ***
